P3-002_N6-cyclooctyladenosine
  rDOCK(R)          3D
libRbt.so/26.09/alpha
 31 34  0  0  0  0  0  0  0  0999 V2000
   55.8176   20.0589   39.2885 C   0  0  0  0  0  0
   55.2513   21.4457   38.9977 C   0  0  0  0  0  0
   53.8734   21.4615   38.3406 C   0  0  0  0  0  0
   53.9067   21.3435   36.8108 C   0  0  0  0  0  0
   53.3605   20.0114   36.2718 C   0  0  0  0  0  0
   54.3768   18.8609   36.2010 C   0  0  0  0  0  0
   54.9207   18.3973   37.5519 C   0  0  0  0  0  0
   56.1178   19.2073   38.0578 C   0  0  0  0  0  0
   52.6973   20.1962   34.9753 N   0  0  0  0  0  0
   51.7423   21.1924   34.7854 C   0  0  0  0  0  0
   50.3825   20.8656   34.6019 C   0  0  0  0  0  0
   49.4952   21.9162   34.4353 C   0  0  0  0  0  0
   49.7796   23.2276   34.4324 N   0  0  0  0  0  0
   51.0995   23.4290   34.6091 C   0  0  0  0  0  0
   52.0740   22.5094   34.7785 N   0  0  0  0  0  0
   48.2740   21.3225   34.2705 N   0  0  0  0  0  0
   48.4588   19.9681   34.3570 C   0  0  0  0  0  0
   49.7239   19.6513   34.5383 N   0  0  0  0  0  0
   47.0280   22.0200   34.0273 C   0  0  0  0  0  0
   46.5938   21.9877   32.5595 C   0  0  0  0  0  0
   45.0908   22.1544   32.6993 C   0  0  0  0  0  0
   44.7872   21.3374   33.9554 C   0  0  0  0  0  0
   45.9720   21.3758   34.7825 O   0  0  0  0  0  0
   44.4499   19.8759   33.6515 C   0  0  0  0  0  0
   45.5815   19.2120   33.1089 O   0  0  0  0  0  0
   44.8303   23.5531   32.9267 O   0  0  0  0  0  0
   47.1528   23.0215   31.7570 O   0  0  0  0  0  0
   53.3184   20.1614   34.1681 H   0  0  0  0  0  0
   45.7592   19.6114   32.2376 H   0  0  0  0  0  0
   43.8649   23.6473   33.0327 H   0  0  0  0  0  0
   46.7795   22.8918   30.8600 H   0  0  0  0  0  0
  1  2  1  0  0  0
  2  3  1  0  0  0
  3  4  1  0  0  0
  4  5  1  0  0  0
  5  6  1  0  0  0
  6  7  1  0  0  0
  7  8  1  0  0  0
  5  9  1  0  0  0
  9 10  1  0  0  0
 10 11  2  0  0  0
 11 12  1  0  0  0
 12 13  2  0  0  0
 13 14  1  0  0  0
 14 15  2  0  0  0
 12 16  1  0  0  0
 16 17  1  0  0  0
 17 18  2  0  0  0
 16 19  1  0  0  0
 19 20  1  0  0  0
 20 21  1  0  0  0
 21 22  1  0  0  0
 22 23  1  0  0  0
 22 24  1  0  0  0
 24 25  1  0  0  0
 21 26  1  0  0  0
 20 27  1  0  0  0
  8  1  1  0  0  0
 15 10  1  0  0  0
 18 11  1  0  0  0
 23 19  1  0  0  0
  9 28  1  0  0  0
 25 29  1  0  0  0
 26 30  1  0  0  0
 27 31  1  0  0  0
M  END
>  <CHROM.0>
63.53857531,-179.51280797,3.82355211,5.13139156

>  <CHROM.1>
-49.60443957,-110.31167376,101.48829138,65.49925268,-66.56079564,-178.90221809
-178.83213016,50.01945235,21.10368479,35.02493669,0.24642354,0.40912326,2.90468807

>  <ETKDG_SEED>
20260828

>  <FROZEN_INCHIKEY>
TUBLKCBQFVQEOG-SCFUHWHPSA-N

>  <Name>
P3-002_N6-cyclooctyladenosine

>  <PUBCHEM_CID>
54333857

>  <RI>
-1.57102e+09

>  <Rbt.Current_Directory>
/mnt/nfs/CX900004_DS117/sbdd-project/references/stage5/negative_panel/rdock_session011

>  <Rbt.Executable>
rbdock - v26.09-alpha

>  <Rbt.Library>
libRbt.so (26.09, Buildalpha)

>  <Rbt.Parameter_File>
/mnt/nfs/CX900004_DS117/src/rdock/data/scripts/dock.prm

>  <Rbt.Receptor>
./3REY_rdock.prm

>  <SCORE>
-10.5896

>  <SCORE.INTER>
-10.8878

>  <SCORE.INTER.CONST>
1

>  <SCORE.INTER.POLAR>
-1.06066

>  <SCORE.INTER.REPUL>
0.0594597

>  <SCORE.INTER.ROT>
4

>  <SCORE.INTER.VDW>
-16.9789

>  <SCORE.INTER.norm>
-0.403252

>  <SCORE.INTRA>
0.109473

>  <SCORE.INTRA.DIHEDRAL>
-0.938335

>  <SCORE.INTRA.DIHEDRAL.0>
5.21751

>  <SCORE.INTRA.POLAR>
0.314067

>  <SCORE.INTRA.POLAR.0>
-0.314067

>  <SCORE.INTRA.REPUL>
0.00174163

>  <SCORE.INTRA.REPUL.0>
0

>  <SCORE.INTRA.VDW>
-0.497897

>  <SCORE.INTRA.VDW.0>
-1.5533

>  <SCORE.INTRA.norm>
0.00405455

>  <SCORE.RESTR>
0.00102727

>  <SCORE.RESTR.CAVITY>
0.00102727

>  <SCORE.RESTR.norm>
3.8047e-05

>  <SCORE.SYSTEM>
0.18768

>  <SCORE.SYSTEM.CONST>
0

>  <SCORE.SYSTEM.DIHEDRAL>
0.12663

>  <SCORE.SYSTEM.VDW>
0.124365

>  <SCORE.SYSTEM.norm>
0.0069511

>  <SCORE.heavy>
27

>  <SCORE.norm>
-0.392208

$$$$
