@<TRIPOS>MOLECULE
XAC
60 62 1 0 0
SMALL
USER_CHARGES

@<TRIPOS>ATOM
      1 A001        10.8342    -1.6608     0.0000 C.3      1 XAC   0.000000
      2 A002        12.3160    -1.4280     0.0000 N.4      1 XAC   1.000000
      3 A003         9.8917    -0.4938     0.0000 C.3      1 XAC   0.000000
      4 A004         8.4099    -0.7266     0.0000 N.3      1 XAC   0.000000
      5 A005         7.4674     0.4404     0.0000 C.2      1 XAC   0.000000
      6 A006         8.0068     1.8400     0.0000 O.2      1 XAC   0.000000
      7 A007         5.9856     0.2076     0.0000 C.3      1 XAC   0.000000
      8 A008         5.0431     1.3746     0.0000 O.3      1 XAC   0.000000
      9 A009         3.5613     1.1418     0.0000 C.ar     1 XAC   0.000000
     10 A010         3.0219    -0.2579     0.0000 C.ar     1 XAC   0.000000
     11 A011         2.6188     2.3088     0.0000 C.ar     1 XAC   0.000000
     12 A012         1.5401    -0.4906     0.0000 C.ar     1 XAC   0.000000
     13 A013         1.1370     2.0760     0.0000 C.ar     1 XAC   0.000000
     14 A014         0.5976     0.6764     0.0000 C.ar     1 XAC   0.000000
     15 A015        -0.8842     0.4436     0.0000 C.ar     1 XAC   0.000000
     16 A016        -1.5669    -0.8920     0.0000 N.ar     1 XAC   0.000000
     17 A017        -1.9435     1.5056     0.0000 N.ar     1 XAC   0.000000
     18 A018        -3.0482    -0.6554     0.0000 C.ar     1 XAC   0.000000
     19 A019        -3.2809     0.8264     0.0000 C.ar     1 XAC   0.000000
     20 A020        -4.2151    -1.5979     0.0000 N.ar     1 XAC   0.000000
     21 A021        -4.6806     1.3657     0.0000 C.ar     1 XAC   0.000000
     22 A022        -5.6148    -1.0586     0.0000 C.ar     1 XAC   0.000000
     23 A023        -3.9824    -3.0798     0.0000 C.3      1 XAC   0.000000
     24 A024        -4.9133     2.8476     0.0000 O.2      1 XAC   0.000000
     25 A025        -5.8475     0.4233     0.0000 N.ar     1 XAC   0.000000
     26 A026        -6.7817    -2.0010     0.0000 O.2      1 XAC   0.000000
     27 A027        -5.1493    -4.0222     0.0000 C.3      1 XAC   0.000000
     28 A028        -7.2472     0.9626     0.0000 C.3      1 XAC   0.000000
     29 A029        -4.9166    -5.5041     0.0000 C.3      1 XAC   0.000000
     30 A030        -7.4799     2.4445     0.0000 C.3      1 XAC   0.000000
     31 A031        -8.8796     2.9838     0.0000 C.3      1 XAC   0.000000
     32 A032        10.4746    -2.5939     0.0000 H        1 XAC   0.000000
     33 A033         9.8463    -1.8160     0.0000 H        1 XAC   0.000000
     34 A034        12.4990    -0.4449     0.0000 H        1 XAC   0.000000
     35 A035        13.0131    -2.1450     0.0000 H        1 XAC   0.000000
     36 A036        13.2732    -1.1385     0.0000 H        1 XAC   0.000000
     37 A037        10.2513     0.4393     0.0000 H        1 XAC   0.000000
     38 A038        10.8796    -0.3386     0.0000 H        1 XAC   0.000000
     39 A039         8.0503    -1.6597     0.0000 H        1 XAC   0.000000
     40 A040         5.6260    -0.7255     0.0000 H        1 XAC   0.000000
     41 A041         4.9977     0.0524     0.0000 H        1 XAC   0.000000
     42 A042         3.6502    -1.0359     0.0000 H        1 XAC   0.000000
     43 A043         2.9784     3.2419     0.0000 H        1 XAC   0.000000
     44 A044         1.1805    -1.4237     0.0000 H        1 XAC   0.000000
     45 A045         0.5087     2.8540     0.0000 H        1 XAC   0.000000
     46 A046        -1.7858     2.4931     0.0000 H        1 XAC   0.000000
     47 A047        -3.0493    -3.4394     0.0000 H        1 XAC   0.000000
     48 A048        -4.9155    -2.7202     0.0000 H        1 XAC   0.000000
     49 A049        -6.0824    -3.6626     0.0000 H        1 XAC   0.000000
     50 A050        -4.2162    -4.3818     0.0000 H        1 XAC   0.000000
     51 A051        -8.0252     0.3343     0.0000 H        1 XAC   0.000000
     52 A052        -7.0920    -0.0253     0.0000 H        1 XAC   0.000000
     53 A053        -3.9335    -5.6871     0.0000 H        1 XAC   0.000000
     54 A054        -5.6336    -6.2011     0.0000 H        1 XAC   0.000000
     55 A055        -4.6272    -6.4613     0.0000 H        1 XAC   0.000000
     56 A056        -6.7019     3.0728     0.0000 H        1 XAC   0.000000
     57 A057        -7.6351     3.4324     0.0000 H        1 XAC   0.000000
     58 A058        -9.5296     2.2239     0.0000 H        1 XAC   0.000000
     59 A059        -9.1248     3.9533     0.0000 H        1 XAC   0.000000
     60 A060        -9.8533     3.2117     0.0000 H        1 XAC   0.000000
@<TRIPOS>BOND
     1     1     2 1
     2     3     1 1
     3     4     3 1
     4     4     5 1
     5     6     5 2
     6     7     5 1
     7     8     7 1
     8     8     9 1
     9     9    10 ar
    10     9    11 ar
    11    10    12 ar
    12    13    11 ar
    13    12    14 ar
    14    14    13 ar
    15    15    14 1
    16    15    16 ar
    17    15    17 ar
    18    16    18 ar
    19    17    19 ar
    20    20    18 ar
    21    18    19 ar
    22    21    19 ar
    23    20    22 ar
    24    20    23 1
    25    21    24 2
    26    21    25 ar
    27    22    25 ar
    28    22    26 2
    29    23    27 1
    30    25    28 1
    31    27    29 1
    32    28    30 1
    33    30    31 1
    34     1    32 1
    35     1    33 1
    36     2    34 1
    37     2    35 1
    38     2    36 1
    39     3    37 1
    40     3    38 1
    41     4    39 1
    42     7    40 1
    43     7    41 1
    44    10    42 1
    45    11    43 1
    46    12    44 1
    47    13    45 1
    48    17    46 1
    49    23    47 1
    50    23    48 1
    51    27    49 1
    52    27    50 1
    53    28    51 1
    54    28    52 1
    55    29    53 1
    56    29    54 1
    57    29    55 1
    58    30    56 1
    59    30    57 1
    60    31    58 1
    61    31    59 1
    62    31    60 1
@<TRIPOS>SUBSTRUCTURE
     1 XAC         1 TEMP              0 ****  ****    0 ROOT
