P3-002_N6-cyclooctyladenosine
     RDKit          3D

 54 57  0  0  0  0  0  0  0  0999 V2000
   -6.5281   -0.0117   -0.0288 C   0  0  0  0  0  0  0  0  0  0  0  0
   -6.1462   -0.8699   -1.2313 C   0  0  0  0  0  0  0  0  0  0  0  0
   -5.1249   -1.9688   -0.9488 C   0  0  0  0  0  0  0  0  0  0  0  0
   -3.6645   -1.5049   -1.0343 C   0  0  0  0  0  0  0  0  0  0  0  0
   -2.9370   -1.4686    0.3194 C   0  0  0  0  0  0  0  0  0  0  0  0
   -3.1107   -0.1736    1.1283 C   0  0  0  0  0  0  0  0  0  0  0  0
   -4.5399    0.1126    1.5877 C   0  0  0  0  0  0  0  0  0  0  0  0
   -5.3995    0.8384    0.5488 C   0  0  0  0  0  0  0  0  0  0  0  0
   -1.5141   -1.7953    0.1654 N   0  0  0  0  0  0  0  0  0  0  0  0
   -0.6329   -0.9174   -0.4617 C   0  0  0  0  0  0  0  0  0  0  0  0
    0.7343   -0.8945   -0.1155 C   0  0  0  0  0  0  0  0  0  0  0  0
    1.5458   -0.0028   -0.7976 C   0  0  0  0  0  0  0  0  0  0  0  0
    1.1808    0.8511   -1.7663 N   0  0  0  0  0  0  0  0  0  0  0  0
   -0.1392    0.7527   -2.0152 C   0  0  0  0  0  0  0  0  0  0  0  0
   -1.0456   -0.0605   -1.4311 N   0  0  0  0  0  0  0  0  0  0  0  0
    2.7923   -0.1822   -0.2637 N   0  0  0  0  0  0  0  0  0  0  0  0
    2.6962   -1.1629    0.6877 C   0  0  0  0  0  0  0  0  0  0  0  0
    1.4632   -1.6056    0.8200 N   0  0  0  0  0  0  0  0  0  0  0  0
    3.9796    0.5586   -0.6373 C   0  0  1  0  0  0  0  0  0  0  0  0
    4.2423    1.7714    0.2594 C   0  0  1  0  0  0  0  0  0  0  0  0
    5.7455    1.9238    0.1059 C   0  0  1  0  0  0  0  0  0  0  0  0
    6.2173    0.4704    0.0537 C   0  0  2  0  0  0  0  0  0  0  0  0
    5.1352   -0.3064   -0.5075 O   0  0  0  0  0  0  0  0  0  0  0  0
    6.5625   -0.0965    1.4326 C   0  0  0  0  0  0  0  0  0  0  0  0
    7.6180    0.6486    2.0212 O   0  0  0  0  0  0  0  0  0  0  0  0
    5.9869    2.5827   -1.1525 O   0  0  0  0  0  0  0  0  0  0  0  0
    3.5626    2.9566   -0.1387 O   0  0  0  0  0  0  0  0  0  0  0  0
   -6.9792   -0.6359    0.7519 H   0  0  0  0  0  0  0  0  0  0  0  0
   -7.3213    0.6704   -0.3624 H   0  0  0  0  0  0  0  0  0  0  0  0
   -7.0665   -1.3537   -1.5845 H   0  0  0  0  0  0  0  0  0  0  0  0
   -5.8077   -0.2326   -2.0571 H   0  0  0  0  0  0  0  0  0  0  0  0
   -5.2627   -2.7318   -1.7271 H   0  0  0  0  0  0  0  0  0  0  0  0
   -5.3474   -2.4707   -0.0007 H   0  0  0  0  0  0  0  0  0  0  0  0
   -3.1455   -2.2243   -1.6834 H   0  0  0  0  0  0  0  0  0  0  0  0
   -3.5914   -0.5386   -1.5452 H   0  0  0  0  0  0  0  0  0  0  0  0
   -3.3380   -2.2873    0.9310 H   0  0  0  0  0  0  0  0  0  0  0  0
   -2.7175    0.6921    0.5822 H   0  0  0  0  0  0  0  0  0  0  0  0
   -2.4889   -0.2585    2.0307 H   0  0  0  0  0  0  0  0  0  0  0  0
   -4.4610    0.7781    2.4582 H   0  0  0  0  0  0  0  0  0  0  0  0
   -5.0206   -0.8005    1.9560 H   0  0  0  0  0  0  0  0  0  0  0  0
   -5.8760    1.6839    1.0634 H   0  0  0  0  0  0  0  0  0  0  0  0
   -4.7951    1.2805   -0.2512 H   0  0  0  0  0  0  0  0  0  0  0  0
   -1.0723   -2.1856    0.9966 H   0  0  0  0  0  0  0  0  0  0  0  0
   -0.5275    1.4126   -2.7857 H   0  0  0  0  0  0  0  0  0  0  0  0
    3.5500   -1.5155    1.2513 H   0  0  0  0  0  0  0  0  0  0  0  0
    3.8851    0.8365   -1.6938 H   0  0  0  0  0  0  0  0  0  0  0  0
    3.9842    1.5571    1.3029 H   0  0  0  0  0  0  0  0  0  0  0  0
    6.1990    2.5378    0.8887 H   0  0  0  0  0  0  0  0  0  0  0  0
    7.0837    0.3714   -0.6101 H   0  0  0  0  0  0  0  0  0  0  0  0
    5.6955   -0.0748    2.1014 H   0  0  0  0  0  0  0  0  0  0  0  0
    6.8733   -1.1429    1.3383 H   0  0  0  0  0  0  0  0  0  0  0  0
    7.8627    0.1963    2.8493 H   0  0  0  0  0  0  0  0  0  0  0  0
    6.9528    2.6967   -1.2312 H   0  0  0  0  0  0  0  0  0  0  0  0
    4.0524    3.2940   -0.9179 H   0  0  0  0  0  0  0  0  0  0  0  0
  1  2  1  0
  2  3  1  0
  3  4  1  0
  4  5  1  0
  5  6  1  0
  6  7  1  0
  7  8  1  0
  5  9  1  0
  9 10  1  0
 10 11  2  0
 11 12  1  0
 12 13  2  0
 13 14  1  0
 14 15  2  0
 12 16  1  0
 16 17  1  0
 17 18  2  0
 16 19  1  0
 19 20  1  0
 20 21  1  0
 21 22  1  0
 22 23  1  0
 22 24  1  0
 24 25  1  0
 21 26  1  0
 20 27  1  0
  8  1  1  0
 15 10  1  0
 18 11  1  0
 23 19  1  0
  1 28  1  0
  1 29  1  0
  2 30  1  0
  2 31  1  0
  3 32  1  0
  3 33  1  0
  4 34  1  0
  4 35  1  0
  5 36  1  0
  6 37  1  0
  6 38  1  0
  7 39  1  0
  7 40  1  0
  8 41  1  0
  8 42  1  0
  9 43  1  0
 14 44  1  0
 17 45  1  0
 19 46  1  6
 20 47  1  1
 21 48  1  1
 22 49  1  6
 24 50  1  0
 24 51  1  0
 25 52  1  0
 26 53  1  0
 27 54  1  0
M  END
>  <PUBCHEM_CID>  (1) 
54333857

>  <FROZEN_INCHIKEY>  (1) 
TUBLKCBQFVQEOG-SCFUHWHPSA-N

>  <ETKDG_SEED>  (1) 
20260828

$$$$
