@<TRIPOS>MOLECULE
MOL
   54    57     1     0     0
SMALL
No Charge or Current Charge


@<TRIPOS>ATOM
      1 C1          -6.5280    -0.0120    -0.0290 C.3        1 MOL       0.000000
      2 C2          -6.1460    -0.8700    -1.2310 C.3        1 MOL       0.000000
      3 C3          -5.1250    -1.9690    -0.9490 C.3        1 MOL       0.000000
      4 C4          -3.6640    -1.5050    -1.0340 C.3        1 MOL       0.000000
      5 C5          -2.9370    -1.4690     0.3190 C.3        1 MOL       0.000000
      6 C6          -3.1110    -0.1740     1.1280 C.3        1 MOL       0.000000
      7 C7          -4.5400     0.1130     1.5880 C.3        1 MOL       0.000000
      8 C8          -5.3990     0.8380     0.5490 C.3        1 MOL       0.000000
      9 N1          -1.5140    -1.7950     0.1650 N.3        1 MOL       0.000000
     10 C9          -0.6330    -0.9170    -0.4620 C.ar       1 MOL       0.000000
     11 C10          0.7340    -0.8940    -0.1160 C.ar       1 MOL       0.000000
     12 C11          1.5460    -0.0030    -0.7980 C.ar       1 MOL       0.000000
     13 N2           1.1810     0.8510    -1.7660 N.ar       1 MOL       0.000000
     14 C12         -0.1390     0.7530    -2.0150 C.ar       1 MOL       0.000000
     15 N3          -1.0460    -0.0600    -1.4310 N.ar       1 MOL       0.000000
     16 N4           2.7920    -0.1820    -0.2640 N.pl3      1 MOL       0.000000
     17 C13          2.6960    -1.1630     0.6880 C.2        1 MOL       0.000000
     18 N5           1.4630    -1.6060     0.8200 N.2        1 MOL       0.000000
     19 C14          3.9800     0.5590    -0.6370 C.3        1 MOL       0.000000
     20 C15          4.2420     1.7710     0.2590 C.3        1 MOL       0.000000
     21 C16          5.7450     1.9240     0.1060 C.3        1 MOL       0.000000
     22 C17          6.2170     0.4700     0.0540 C.3        1 MOL       0.000000
     23 O1           5.1350    -0.3060    -0.5070 O.3        1 MOL       0.000000
     24 C18          6.5620    -0.0970     1.4330 C.3        1 MOL       0.000000
     25 O2           7.6180     0.6490     2.0210 O.3        1 MOL       0.000000
     26 O3           5.9870     2.5830    -1.1530 O.3        1 MOL       0.000000
     27 O4           3.5630     2.9570    -0.1390 O.3        1 MOL       0.000000
     28 H1          -6.9790    -0.6360     0.7520 H          1 MOL       0.000000
     29 H2          -7.3210     0.6700    -0.3620 H          1 MOL       0.000000
     30 H3          -7.0660    -1.3540    -1.5850 H          1 MOL       0.000000
     31 H4          -5.8080    -0.2330    -2.0570 H          1 MOL       0.000000
     32 H5          -5.2630    -2.7320    -1.7270 H          1 MOL       0.000000
     33 H6          -5.3470    -2.4710    -0.0010 H          1 MOL       0.000000
     34 H7          -3.1460    -2.2240    -1.6830 H          1 MOL       0.000000
     35 H8          -3.5910    -0.5390    -1.5450 H          1 MOL       0.000000
     36 H9          -3.3380    -2.2870     0.9310 H          1 MOL       0.000000
     37 H10         -2.7170     0.6920     0.5820 H          1 MOL       0.000000
     38 H11         -2.4890    -0.2590     2.0310 H          1 MOL       0.000000
     39 H12         -4.4610     0.7780     2.4580 H          1 MOL       0.000000
     40 H13         -5.0210    -0.8000     1.9560 H          1 MOL       0.000000
     41 H14         -5.8760     1.6840     1.0630 H          1 MOL       0.000000
     42 H15         -4.7950     1.2800    -0.2510 H          1 MOL       0.000000
     43 H16         -1.0720    -2.1860     0.9970 H          1 MOL       0.000000
     44 H17         -0.5270     1.4130    -2.7860 H          1 MOL       0.000000
     45 H18          3.5500    -1.5160     1.2510 H          1 MOL       0.000000
     46 H19          3.8850     0.8370    -1.6940 H          1 MOL       0.000000
     47 H20          3.9840     1.5570     1.3030 H          1 MOL       0.000000
     48 H21          6.1990     2.5380     0.8890 H          1 MOL       0.000000
     49 H22          7.0840     0.3710    -0.6100 H          1 MOL       0.000000
     50 H23          5.6960    -0.0750     2.1010 H          1 MOL       0.000000
     51 H24          6.8730    -1.1430     1.3380 H          1 MOL       0.000000
     52 H25          7.8630     0.1960     2.8490 H          1 MOL       0.000000
     53 H26          6.9530     2.6970    -1.2310 H          1 MOL       0.000000
     54 H27          4.0520     3.2940    -0.9180 H          1 MOL       0.000000
@<TRIPOS>BOND
     1     1     2 1   
     2     2     3 1   
     3     3     4 1   
     4     4     5 1   
     5     5     6 1   
     6     6     7 1   
     7     7     8 1   
     8     5     9 1   
     9     9    10 1   
    10    10    11 ar  
    11    11    12 ar  
    12    12    13 ar  
    13    13    14 ar  
    14    14    15 ar  
    15    12    16 1   
    16    16    17 1   
    17    17    18 2   
    18    16    19 1   
    19    19    20 1   
    20    20    21 1   
    21    21    22 1   
    22    22    23 1   
    23    22    24 1   
    24    24    25 1   
    25    21    26 1   
    26    20    27 1   
    27     8     1 1   
    28    15    10 ar  
    29    18    11 1   
    30    23    19 1   
    31     1    28 1   
    32     1    29 1   
    33     2    30 1   
    34     2    31 1   
    35     3    32 1   
    36     3    33 1   
    37     4    34 1   
    38     4    35 1   
    39     5    36 1   
    40     6    37 1   
    41     6    38 1   
    42     7    39 1   
    43     7    40 1   
    44     8    41 1   
    45     8    42 1   
    46     9    43 1   
    47    14    44 1   
    48    17    45 1   
    49    19    46 1   
    50    20    47 1   
    51    21    48 1   
    52    22    49 1   
    53    24    50 1   
    54    24    51 1   
    55    25    52 1   
    56    26    53 1   
    57    27    54 1   
@<TRIPOS>SUBSTRUCTURE
     1 MOL         1 TEMP              0 ****  ****    0 ROOT
