XAC_3REY_CCD_neutral
     RDKit          3D

 59 61  0  0  0  0  0  0  0  0999 V2000
   48.9990   24.1270   30.3690 C   0  0  0  0  0  0  0  0  0  0  0  0
   47.4200   21.9500   31.2320 N   0  0  0  0  0  0  0  0  0  0  0  0
   49.7200   25.0800   30.0490 O   0  0  0  0  0  0  0  0  0  0  0  0
   47.2530   22.4800   29.9710 C   0  0  0  0  0  0  0  0  0  0  0  0
   48.0220   23.5680   29.5920 N   0  0  0  0  0  0  0  0  0  0  0  0
   46.4130   21.9920   29.2000 O   0  0  0  0  0  0  0  0  0  0  0  0
   49.7100   23.0270   33.7450 C   0  0  0  0  0  0  0  0  0  0  0  0
   48.7440   22.1450   33.4190 N   0  0  0  0  0  0  0  0  0  0  0  0
   52.1770   23.4190   38.8610 O   0  0  0  0  0  0  0  0  0  0  0  0
   48.3930   22.4870   32.1110 C   0  0  0  0  0  0  0  0  0  0  0  0
   49.9710   23.8670   32.7210 N   0  0  0  0  0  0  0  0  0  0  0  0
   53.4690   23.0250   41.5130 O   0  0  0  0  0  0  0  0  0  0  0  0
   49.1320   23.5200   31.6790 C   0  0  0  0  0  0  0  0  0  0  0  0
   51.5090   23.9920   42.0740 N   0  0  0  0  0  0  0  0  0  0  0  0
   47.7400   24.2150   28.2900 C   0  0  0  0  0  0  0  0  0  0  0  0
   51.1610   25.9650   45.2170 N   0  0  0  0  0  0  0  0  0  0  0  0
   46.6940   25.3380   28.4360 C   0  0  0  0  0  0  0  0  0  0  0  0
   46.5800   20.8480   31.7220 C   0  0  0  0  0  0  0  0  0  0  0  0
   47.2750   19.4840   31.5650 C   0  0  0  0  0  0  0  0  0  0  0  0
   46.4900   18.3500   32.2330 C   0  0  0  0  0  0  0  0  0  0  0  0
   46.2680   25.9340   27.0910 C   0  0  0  0  0  0  0  0  0  0  0  0
   51.5720   23.2420   37.6350 C   0  0  0  0  0  0  0  0  0  0  0  0
   50.5720   22.2760   37.3650 C   0  0  0  0  0  0  0  0  0  0  0  0
   49.9740   22.1990   36.0920 C   0  0  0  0  0  0  0  0  0  0  0  0
   50.3680   23.0770   35.0560 C   0  0  0  0  0  0  0  0  0  0  0  0
   51.3910   24.0170   35.3160 C   0  0  0  0  0  0  0  0  0  0  0  0
   51.9840   24.0960   36.5930 C   0  0  0  0  0  0  0  0  0  0  0  0
   51.6400   22.7210   39.9810 C   0  0  0  0  0  0  0  0  0  0  0  0
   52.2840   23.2610   41.2620 C   0  0  0  0  0  0  0  0  0  0  0  0
   51.9250   24.5800   43.3390 C   0  0  0  0  0  0  0  0  0  0  0  0
   50.7600   25.3700   43.9570 C   0  0  0  0  0  0  0  0  0  0  0  0
   50.6470   24.6040   32.7170 H   0  0  0  0  0  0  0  0  0  0  0  0
   50.5640   24.1470   41.7870 H   0  0  0  0  0  0  0  0  0  0  0  0
   48.6730   24.6470   27.8980 H   0  0  0  0  0  0  0  0  0  0  0  0
   47.3530   23.4570   27.5930 H   0  0  0  0  0  0  0  0  0  0  0  0
   50.3930   26.4740   45.6050 H   0  0  0  0  0  0  0  0  0  0  0  0
   51.4380   25.2440   45.8530 H   0  0  0  0  0  0  0  0  0  0  0  0
   45.8030   24.9200   28.9270 H   0  0  0  0  0  0  0  0  0  0  0  0
   47.1310   26.1410   29.0480 H   0  0  0  0  0  0  0  0  0  0  0  0
   46.3670   21.0140   32.7880 H   0  0  0  0  0  0  0  0  0  0  0  0
   45.6440   20.8350   31.1450 H   0  0  0  0  0  0  0  0  0  0  0  0
   47.3670   19.2600   30.4920 H   0  0  0  0  0  0  0  0  0  0  0  0
   48.2690   19.5430   32.0310 H   0  0  0  0  0  0  0  0  0  0  0  0
   47.0260   17.4000   32.0930 H   0  0  0  0  0  0  0  0  0  0  0  0
   46.3880   18.5580   33.3080 H   0  0  0  0  0  0  0  0  0  0  0  0
   45.4910   18.2780   31.7770 H   0  0  0  0  0  0  0  0  0  0  0  0
   45.5240   26.7260   27.2600 H   0  0  0  0  0  0  0  0  0  0  0  0
   47.1470   26.3580   26.5830 H   0  0  0  0  0  0  0  0  0  0  0  0
   45.8270   25.1450   26.4640 H   0  0  0  0  0  0  0  0  0  0  0  0
   50.2650   21.5920   38.1420 H   0  0  0  0  0  0  0  0  0  0  0  0
   49.2070   21.4620   35.9050 H   0  0  0  0  0  0  0  0  0  0  0  0
   51.7210   24.6800   34.5300 H   0  0  0  0  0  0  0  0  0  0  0  0
   52.7640   24.8210   36.7750 H   0  0  0  0  0  0  0  0  0  0  0  0
   50.5510   22.8720   40.0230 H   0  0  0  0  0  0  0  0  0  0  0  0
   51.8550   21.6470   39.8840 H   0  0  0  0  0  0  0  0  0  0  0  0
   52.2290   23.7800   44.0300 H   0  0  0  0  0  0  0  0  0  0  0  0
   52.7730   25.2590   43.1640 H   0  0  0  0  0  0  0  0  0  0  0  0
   49.9150   24.6880   44.1330 H   0  0  0  0  0  0  0  0  0  0  0  0
   50.4570   26.1670   43.2620 H   0  0  0  0  0  0  0  0  0  0  0  0
  1  3  2  0
  1  5  1  0
  1 13  1  0
  2  4  1  0
  2 10  1  0
  2 18  1  0
  4  5  1  0
  4  6  2  0
  5 15  1  0
  7  8  2  0
  7 11  1  0
  7 25  1  0
  8 10  1  0
  9 22  1  0
  9 28  1  0
 10 13  2  0
 11 13  1  0
 12 29  2  0
 14 29  1  0
 14 30  1  0
 15 17  1  0
 16 31  1  0
 17 21  1  0
 18 19  1  0
 19 20  1  0
 22 23  2  0
 22 27  1  0
 23 24  1  0
 24 25  2  0
 25 26  1  0
 26 27  2  0
 28 29  1  0
 30 31  1  0
 11 32  1  0
 14 33  1  0
 15 34  1  0
 15 35  1  0
 16 36  1  0
 16 37  1  0
 17 38  1  0
 17 39  1  0
 18 40  1  0
 18 41  1  0
 19 42  1  0
 19 43  1  0
 20 44  1  0
 20 45  1  0
 20 46  1  0
 21 47  1  0
 21 48  1  0
 21 49  1  0
 23 50  1  0
 24 51  1  0
 26 52  1  0
 27 53  1  0
 28 54  1  0
 28 55  1  0
 30 56  1  0
 30 57  1  0
 31 58  1  0
 31 59  1  0
M  END
$$$$
