XAC_3REY_CCD_neutral
  rDOCK(R)          3D
libRbt.so/26.09/alpha
 35 37  0  0  0  0  0  0  0  0999 V2000
   49.7176   26.2972   46.2933 C   0  0  0  0  0  0
   52.5292   26.0799   46.1359 N   0  0  0  0  0  0
   48.4829   26.3742   46.2999 O   0  0  0  0  0  0
   51.9215   26.4698   47.3095 C   0  0  0  0  0  0
   50.5425   26.5970   47.3423 N   0  0  0  0  0  0
   52.6095   26.7155   48.3117 O   0  0  0  0  0  0
   50.9449   25.2698   43.0451 C   0  0  0  0  0  0
   52.1156   25.3774   43.7049 N   0  0  0  0  0  0
   50.3209   23.9703   37.5373 O   0  0  0  0  0  0
   51.7493   25.7755   44.9927 C   0  0  0  0  0  0
   49.9015   25.5646   43.8492 N   0  0  0  0  0  0
   50.4176   23.9474   34.4091 O   0  0  0  0  0  0
   50.4158   25.8847   45.0914 C   0  0  0  0  0  0
   51.5099   22.1495   35.2249 N   0  0  0  0  0  0
   49.9112   27.1474   48.5637 C   0  0  0  0  0  0
   51.0139   19.3459   35.6147 N   0  0  0  0  0  0
   49.2555   28.5153   48.2891 C   0  0  0  0  0  0
   53.9919   26.0038   46.0140 C   0  0  0  0  0  0
   54.6142   27.3784   45.7119 C   0  0  0  0  0  0
   54.1736   27.9311   44.3522 C   0  0  0  0  0  0
   48.5090   29.0729   49.5047 C   0  0  0  0  0  0
   50.5546   24.2838   38.8593 C   0  0  0  0  0  0
   51.6412   25.0677   39.3187 C   0  0  0  0  0  0
   51.7739   25.3784   40.6861 C   0  0  0  0  0  0
   50.8316   24.9049   41.6280 C   0  0  0  0  0  0
   49.7675   24.0932   41.1734 C   0  0  0  0  0  0
   49.6335   23.7883   39.8031 C   0  0  0  0  0  0
   51.3771   24.1735   36.6029 C   0  0  0  0  0  0
   51.0589   23.4076   35.3147 C   0  0  0  0  0  0
   51.3023   21.2538   34.0963 C   0  0  0  0  0  0
   50.4075   20.0776   34.5195 C   0  0  0  0  0  0
   48.9347   25.5530   43.5933 H   0  0  0  0  0  0
   52.0338   21.7950   35.9991 H   0  0  0  0  0  0
   50.4048   18.6059   35.8993 H   0  0  0  0  0  0
   51.8878   18.9614   35.3154 H   0  0  0  0  0  0
  1  3  2  0  0  0
  1  5  1  0  0  0
  1 13  1  0  0  0
  2  4  1  0  0  0
  2 10  1  0  0  0
  2 18  1  0  0  0
  4  5  1  0  0  0
  4  6  2  0  0  0
  5 15  1  0  0  0
  7  8  2  0  0  0
  7 11  1  0  0  0
  7 25  1  0  0  0
  8 10  1  0  0  0
  9 22  1  0  0  0
  9 28  1  0  0  0
 10 13  2  0  0  0
 11 13  1  0  0  0
 12 29  2  0  0  0
 14 29  1  0  0  0
 14 30  1  0  0  0
 15 17  1  0  0  0
 16 31  1  0  0  0
 17 21  1  0  0  0
 18 19  1  0  0  0
 19 20  1  0  0  0
 22 23  2  0  0  0
 22 27  1  0  0  0
 23 24  1  0  0  0
 24 25  2  0  0  0
 25 26  1  0  0  0
 26 27  2  0  0  0
 28 29  1  0  0  0
 30 31  1  0  0  0
 11 32  1  0  0  0
 14 33  1  0  0  0
 16 34  1  0  0  0
 16 35  1  0  0  0
M  END
>  <CHROM.0>
-53.80698440,-178.41922668,-170.40869533,-167.67138062

>  <CHROM.1>
-82.55321402,-63.85352677,-37.80825545,15.05289675,163.98341538,-113.60069864
176.06743282,177.95268801,-64.25993886,89.52903054,-58.95973062,51.06172670
25.08689858,42.21065275,1.56345293,0.10405316,1.17343935

>  <Name>
XAC_3REY_CCD_neutral

>  <RI>
-1.87621e+09

>  <Rbt.Current_Directory>
/mnt/nfs/CX900004_DS117/sbdd-project/references/stage5/d021_rdock_3REY_XAC_single_shot_qualification_20260917

>  <Rbt.Executable>
rbdock - v26.09-alpha

>  <Rbt.Library>
libRbt.so (26.09, Buildalpha)

>  <Rbt.Parameter_File>
dock.prm

>  <Rbt.Receptor>
3REY_rdock.prm

>  <SCORE>
-1.28039

>  <SCORE.INTER>
-4.6875

>  <SCORE.INTER.CONST>
1

>  <SCORE.INTER.POLAR>
0

>  <SCORE.INTER.REPUL>
0

>  <SCORE.INTER.ROT>
11

>  <SCORE.INTER.VDW>
-21.0875

>  <SCORE.INTER.norm>
-0.15121

>  <SCORE.INTRA>
2.10449

>  <SCORE.INTRA.DIHEDRAL>
5.54968

>  <SCORE.INTRA.DIHEDRAL.0>
8.42133

>  <SCORE.INTRA.POLAR>
0

>  <SCORE.INTRA.POLAR.0>
0

>  <SCORE.INTRA.REPUL>
0

>  <SCORE.INTRA.REPUL.0>
0

>  <SCORE.INTRA.VDW>
-0.670355

>  <SCORE.INTRA.VDW.0>
-1.06371

>  <SCORE.INTRA.norm>
0.0678867

>  <SCORE.RESTR>
0

>  <SCORE.RESTR.CAVITY>
0

>  <SCORE.RESTR.norm>
0

>  <SCORE.SYSTEM>
1.30262

>  <SCORE.SYSTEM.CONST>
0

>  <SCORE.SYSTEM.DIHEDRAL>
0.556427

>  <SCORE.SYSTEM.VDW>
1.02441

>  <SCORE.SYSTEM.norm>
0.04202

>  <SCORE.heavy>
31

>  <SCORE.norm>
-0.041303

$$$$
XAC_3REY_CCD_neutral
  rDOCK(R)          3D
libRbt.so/26.09/alpha
 35 37  0  0  0  0  0  0  0  0999 V2000
   52.0647   26.4145   42.6672 C   0  0  0  0  0  0
   50.5057   24.2435   43.5803 N   0  0  0  0  0  0
   52.7381   27.3444   42.2065 O   0  0  0  0  0  0
   51.0524   25.1383   44.4744 C   0  0  0  0  0  0
   51.8382   26.1730   43.9943 N   0  0  0  0  0  0
   50.8500   25.0012   45.6903 O   0  0  0  0  0  0
   50.8201   24.2703   40.0278 C   0  0  0  0  0  0
   50.2870   23.6452   41.0967 N   0  0  0  0  0  0
   50.4475   22.4344   34.6516 O   0  0  0  0  0  0
   50.7133   24.4057   42.1880 C   0  0  0  0  0  0
   51.5270   25.3584   40.4001 N   0  0  0  0  0  0
   53.1804   23.8285   34.1711 O   0  0  0  0  0  0
   51.4561   25.4447   41.7776 C   0  0  0  0  0  0
   52.2301   23.3928   32.1715 N   0  0  0  0  0  0
   52.5320   27.0460   44.9689 C   0  0  0  0  0  0
   50.6801   25.5767   31.0462 N   0  0  0  0  0  0
   51.6464   28.2371   45.3855 C   0  0  0  0  0  0
   49.7298   23.0798   44.0318 C   0  0  0  0  0  0
   50.6083   21.8239   44.1703 C   0  0  0  0  0  0
   49.7973   20.5871   44.5715 C   0  0  0  0  0  0
   52.3755   29.2333   46.2919 C   0  0  0  0  0  0
   50.4630   22.8448   35.9676 C   0  0  0  0  0  0
   49.8770   22.1277   37.0393 C   0  0  0  0  0  0
   49.9839   22.6002   38.3619 C   0  0  0  0  0  0
   50.6685   23.8048   38.6442 C   0  0  0  0  0  0
   51.2222   24.5379   37.5701 C   0  0  0  0  0  0
   51.1189   24.0598   36.2475 C   0  0  0  0  0  0
   51.6653   21.9628   34.0818 C   0  0  0  0  0  0
   52.4240   23.1468   33.4739 C   0  0  0  0  0  0
   52.8429   24.4738   31.4132 C   0  0  0  0  0  0
   52.0174   25.7604   31.5757 C   0  0  0  0  0  0
   52.0120   25.9864   39.7914 H   0  0  0  0  0  0
   51.6115   22.7821   31.6779 H   0  0  0  0  0  0
   50.2837   24.7403   31.4241 H   0  0  0  0  0  0
   50.1106   26.3592   31.2999 H   0  0  0  0  0  0
  1  3  2  0  0  0
  1  5  1  0  0  0
  1 13  1  0  0  0
  2  4  1  0  0  0
  2 10  1  0  0  0
  2 18  1  0  0  0
  4  5  1  0  0  0
  4  6  2  0  0  0
  5 15  1  0  0  0
  7  8  2  0  0  0
  7 11  1  0  0  0
  7 25  1  0  0  0
  8 10  1  0  0  0
  9 22  1  0  0  0
  9 28  1  0  0  0
 10 13  2  0  0  0
 11 13  1  0  0  0
 12 29  2  0  0  0
 14 29  1  0  0  0
 14 30  1  0  0  0
 15 17  1  0  0  0
 16 31  1  0  0  0
 17 21  1  0  0  0
 18 19  1  0  0  0
 19 20  1  0  0  0
 22 23  2  0  0  0
 22 27  1  0  0  0
 23 24  1  0  0  0
 24 25  2  0  0  0
 25 26  1  0  0  0
 26 27  2  0  0  0
 28 29  1  0  0  0
 30 31  1  0  0  0
 11 32  1  0  0  0
 14 33  1  0  0  0
 16 34  1  0  0  0
 16 35  1  0  0  0
M  END
>  <CHROM.0>
62.33495520,-63.50840457,-166.28108000,-172.73392861

>  <CHROM.1>
-93.61300380,93.76930623,-3.09093789,-107.76524618,-89.28361762,-84.79733930
-174.65748681,50.26518079,-177.08049400,86.47907339,-62.13957040,51.28538114
24.47336910,39.45334930,-1.65388854,-1.18237746,-1.79850906

>  <Name>
XAC_3REY_CCD_neutral

>  <RI>
-1.87621e+09

>  <Rbt.Current_Directory>
/mnt/nfs/CX900004_DS117/sbdd-project/references/stage5/d021_rdock_3REY_XAC_single_shot_qualification_20260917

>  <Rbt.Executable>
rbdock - v26.09-alpha

>  <Rbt.Library>
libRbt.so (26.09, Buildalpha)

>  <Rbt.Parameter_File>
dock.prm

>  <Rbt.Receptor>
3REY_rdock.prm

>  <SCORE>
-6.3561

>  <SCORE.INTER>
-7.95355

>  <SCORE.INTER.CONST>
1

>  <SCORE.INTER.POLAR>
-0.725136

>  <SCORE.INTER.REPUL>
0

>  <SCORE.INTER.ROT>
11

>  <SCORE.INTER.VDW>
-21.8881

>  <SCORE.INTER.norm>
-0.256566

>  <SCORE.INTRA>
1.54695

>  <SCORE.INTRA.DIHEDRAL>
7.02547

>  <SCORE.INTRA.DIHEDRAL.0>
8.42133

>  <SCORE.INTRA.POLAR>
0

>  <SCORE.INTRA.POLAR.0>
0

>  <SCORE.INTRA.REPUL>
0

>  <SCORE.INTRA.REPUL.0>
0

>  <SCORE.INTRA.VDW>
-1.96579

>  <SCORE.INTRA.VDW.0>
-1.06371

>  <SCORE.INTRA.norm>
0.0499015

>  <SCORE.RESTR>
0

>  <SCORE.RESTR.CAVITY>
0

>  <SCORE.RESTR.norm>
0

>  <SCORE.SYSTEM>
0.0504984

>  <SCORE.SYSTEM.CONST>
0

>  <SCORE.SYSTEM.DIHEDRAL>
0.438117

>  <SCORE.SYSTEM.VDW>
-0.16856

>  <SCORE.SYSTEM.norm>
0.00162898

>  <SCORE.heavy>
31

>  <SCORE.norm>
-0.205036

$$$$
XAC_3REY_CCD_neutral
  rDOCK(R)          3D
libRbt.so/26.09/alpha
 35 37  0  0  0  0  0  0  0  0999 V2000
   47.0814   21.0510   35.4296 C   0  0  0  0  0  0
   49.4408   21.5072   33.9456 N   0  0  0  0  0  0
   46.0773   20.8778   36.1312 O   0  0  0  0  0  0
   48.3483   20.9077   33.3575 C   0  0  0  0  0  0
   47.2188   20.6699   34.1233 N   0  0  0  0  0  0
   48.3917   20.5759   32.1632 O   0  0  0  0  0  0
   49.7399   22.6240   37.3194 C   0  0  0  0  0  0
   50.3485   22.5150   36.1215 N   0  0  0  0  0  0
   52.2198   24.5717   42.0596 O   0  0  0  0  0  0
   49.3918   21.9099   35.3032 C   0  0  0  0  0  0
   48.4817   22.1370   37.2747 N   0  0  0  0  0  0
   52.7775   25.8349   44.8516 O   0  0  0  0  0  0
   48.2604   21.6840   35.9879 C   0  0  0  0  0  0
   53.0856   27.3965   43.2523 N   0  0  0  0  0  0
   46.1039   19.9033   33.5212 C   0  0  0  0  0  0
   55.8952   26.8964   43.0682 N   0  0  0  0  0  0
   46.5052   18.4373   33.2636 C   0  0  0  0  0  0
   50.6958   21.7138   33.2090 C   0  0  0  0  0  0
   50.8751   23.1815   32.7825 C   0  0  0  0  0  0
   52.1016   23.3817   31.8858 C   0  0  0  0  0  0
   45.3464   17.5863   32.7357 C   0  0  0  0  0  0
   51.6631   24.1566   40.8687 C   0  0  0  0  0  0
   52.3362   24.1621   39.6226 C   0  0  0  0  0  0
   51.7033   23.6731   38.4631 C   0  0  0  0  0  0
   50.3802   23.1774   38.5185 C   0  0  0  0  0  0
   49.6967   23.2052   39.7554 C   0  0  0  0  0  0
   50.3346   23.6899   40.9159 C   0  0  0  0  0  0
   51.5236   25.5566   42.8181 C   0  0  0  0  0  0
   52.5191   26.2807   43.7303 C   0  0  0  0  0  0
   54.0407   28.2333   43.9639 C   0  0  0  0  0  0
   55.3842   28.2452   43.2170 C   0  0  0  0  0  0
   47.8298   22.1096   38.0327 H   0  0  0  0  0  0
   52.8306   27.6790   42.3278 H   0  0  0  0  0  0
   55.2520   26.3537   42.5286 H   0  0  0  0  0  0
   56.7801   26.9246   42.6022 H   0  0  0  0  0  0
  1  3  2  0  0  0
  1  5  1  0  0  0
  1 13  1  0  0  0
  2  4  1  0  0  0
  2 10  1  0  0  0
  2 18  1  0  0  0
  4  5  1  0  0  0
  4  6  2  0  0  0
  5 15  1  0  0  0
  7  8  2  0  0  0
  7 11  1  0  0  0
  7 25  1  0  0  0
  8 10  1  0  0  0
  9 22  1  0  0  0
  9 28  1  0  0  0
 10 13  2  0  0  0
 11 13  1  0  0  0
 12 29  2  0  0  0
 14 29  1  0  0  0
 14 30  1  0  0  0
 15 17  1  0  0  0
 16 31  1  0  0  0
 17 21  1  0  0  0
 18 19  1  0  0  0
 19 20  1  0  0  0
 22 23  2  0  0  0
 22 27  1  0  0  0
 23 24  1  0  0  0
 24 25  2  0  0  0
 25 26  1  0  0  0
 26 27  2  0  0  0
 28 29  1  0  0  0
 30 31  1  0  0  0
 11 32  1  0  0  0
 14 33  1  0  0  0
 16 34  1  0  0  0
 16 35  1  0  0  0
M  END
>  <CHROM.0>
62.44622338,-62.68264430,16.51131262,3.12416900

>  <CHROM.1>
104.19645422,-110.06946570,1.73266174,126.37298330,-156.60891326,117.35183388
175.82067631,61.50353785,-173.82920941,-87.65390777,-57.50661230,50.28476877
23.10717926,37.74723269,2.13962619,-0.58830153,-1.79486764

>  <Name>
XAC_3REY_CCD_neutral

>  <RI>
-1.87621e+09

>  <Rbt.Current_Directory>
/mnt/nfs/CX900004_DS117/sbdd-project/references/stage5/d021_rdock_3REY_XAC_single_shot_qualification_20260917

>  <Rbt.Executable>
rbdock - v26.09-alpha

>  <Rbt.Library>
libRbt.so (26.09, Buildalpha)

>  <Rbt.Parameter_File>
dock.prm

>  <Rbt.Receptor>
3REY_rdock.prm

>  <SCORE>
-4.45179

>  <SCORE.INTER>
-5.62067

>  <SCORE.INTER.CONST>
1

>  <SCORE.INTER.POLAR>
0

>  <SCORE.INTER.REPUL>
0.00561666

>  <SCORE.INTER.ROT>
11

>  <SCORE.INTER.VDW>
-22.0488

>  <SCORE.INTER.norm>
-0.181312

>  <SCORE.INTRA>
1.29927

>  <SCORE.INTRA.DIHEDRAL>
4.65166

>  <SCORE.INTRA.DIHEDRAL.0>
8.42133

>  <SCORE.INTRA.POLAR>
0

>  <SCORE.INTRA.POLAR.0>
0

>  <SCORE.INTRA.REPUL>
0

>  <SCORE.INTRA.REPUL.0>
0

>  <SCORE.INTRA.VDW>
-1.02655

>  <SCORE.INTRA.VDW.0>
-1.06371

>  <SCORE.INTRA.norm>
0.0419121

>  <SCORE.RESTR>
0

>  <SCORE.RESTR.CAVITY>
0

>  <SCORE.RESTR.norm>
0

>  <SCORE.SYSTEM>
-0.130392

>  <SCORE.SYSTEM.CONST>
0

>  <SCORE.SYSTEM.DIHEDRAL>
0.470306

>  <SCORE.SYSTEM.VDW>
-0.365545

>  <SCORE.SYSTEM.norm>
-0.00420619

>  <SCORE.heavy>
31

>  <SCORE.norm>
-0.143606

$$$$
XAC_3REY_CCD_neutral
  rDOCK(R)          3D
libRbt.so/26.09/alpha
 35 37  0  0  0  0  0  0  0  0999 V2000
   50.8399   25.6633   45.1325 C   0  0  0  0  0  0
   50.4950   22.8606   45.0768 N   0  0  0  0  0  0
   50.9957   26.8899   45.0921 O   0  0  0  0  0  0
   50.4983   23.5422   46.2744 C   0  0  0  0  0  0
   50.7021   24.9123   46.2673 N   0  0  0  0  0  0
   50.3355   22.9262   47.3384 O   0  0  0  0  0  0
   50.9107   24.2274   41.8090 C   0  0  0  0  0  0
   50.7029   23.1096   42.5334 N   0  0  0  0  0  0
   51.2990   24.2321   36.1290 O   0  0  0  0  0  0
   50.6578   23.5595   43.8550 C   0  0  0  0  0  0
   50.9825   25.3176   42.6019 N   0  0  0  0  0  0
   51.8535   22.2888   33.4610 O   0  0  0  0  0  0
   50.8189   24.8904   43.9060 C   0  0  0  0  0  0
   52.0699   24.5315   33.3382 N   0  0  0  0  0  0
   50.8409   25.6140   47.5641 C   0  0  0  0  0  0
   49.5806   25.5379   32.1802 N   0  0  0  0  0  0
   49.4641   25.9325   48.1803 C   0  0  0  0  0  0
   50.3639   21.3977   45.0233 C   0  0  0  0  0  0
   49.0508   20.9642   44.3480 C   0  0  0  0  0  0
   48.9247   19.4405   44.2441 C   0  0  0  0  0  0
   48.6733   26.9644   47.3707 C   0  0  0  0  0  0
   51.2606   24.2932   37.5057 C   0  0  0  0  0  0
   51.4151   25.4810   38.2614 C   0  0  0  0  0  0
   51.3127   25.4561   39.6660 C   0  0  0  0  0  0
   51.0648   24.2433   40.3495 C   0  0  0  0  0  0
   50.9462   23.0528   39.5970 C   0  0  0  0  0  0
   51.0432   23.0813   38.1904 C   0  0  0  0  0  0
   52.3161   23.4411   35.5208 C   0  0  0  0  0  0
   52.0611   23.3735   34.0116 C   0  0  0  0  0  0
   51.8644   24.6792   31.9047 C   0  0  0  0  0  0
   50.3763   24.4920   31.5674 C   0  0  0  0  0  0
   51.1270   26.2603   42.3010 H   0  0  0  0  0  0
   52.2317   25.3656   33.8649 H   0  0  0  0  0  0
   48.6177   25.4045   31.9470 H   0  0  0  0  0  0
   49.6907   25.5016   33.1740 H   0  0  0  0  0  0
  1  3  2  0  0  0
  1  5  1  0  0  0
  1 13  1  0  0  0
  2  4  1  0  0  0
  2 10  1  0  0  0
  2 18  1  0  0  0
  4  5  1  0  0  0
  4  6  2  0  0  0
  5 15  1  0  0  0
  7  8  2  0  0  0
  7 11  1  0  0  0
  7 25  1  0  0  0
  8 10  1  0  0  0
  9 22  1  0  0  0
  9 28  1  0  0  0
 10 13  2  0  0  0
 11 13  1  0  0  0
 12 29  2  0  0  0
 14 29  1  0  0  0
 14 30  1  0  0  0
 15 17  1  0  0  0
 16 31  1  0  0  0
 17 21  1  0  0  0
 18 19  1  0  0  0
 19 20  1  0  0  0
 22 23  2  0  0  0
 22 27  1  0  0  0
 23 24  1  0  0  0
 24 25  2  0  0  0
 25 26  1  0  0  0
 26 27  2  0  0  0
 28 29  1  0  0  0
 30 31  1  0  0  0
 11 32  1  0  0  0
 14 33  1  0  0  0
 16 34  1  0  0  0
 16 35  1  0  0  0
M  END
>  <CHROM.0>
171.60610504,-179.12236572,1.74332083,173.55550184

>  <CHROM.1>
114.48146383,99.85779612,-178.46028225,118.66270553,172.82493481,74.88454035
-67.11155361,179.67605919,178.07892633,-118.84133194,64.08596089,50.74594544
24.08053678,40.86858915,-2.37720060,-1.44042308,-2.38112344

>  <Name>
XAC_3REY_CCD_neutral

>  <RI>
-1.87621e+09

>  <Rbt.Current_Directory>
/mnt/nfs/CX900004_DS117/sbdd-project/references/stage5/d021_rdock_3REY_XAC_single_shot_qualification_20260917

>  <Rbt.Executable>
rbdock - v26.09-alpha

>  <Rbt.Library>
libRbt.so (26.09, Buildalpha)

>  <Rbt.Parameter_File>
dock.prm

>  <Rbt.Receptor>
3REY_rdock.prm

>  <SCORE>
-5.92066

>  <SCORE.INTER>
-7.03874

>  <SCORE.INTER.CONST>
1

>  <SCORE.INTER.POLAR>
0

>  <SCORE.INTER.REPUL>
0

>  <SCORE.INTER.ROT>
11

>  <SCORE.INTER.VDW>
-23.4387

>  <SCORE.INTER.norm>
-0.227056

>  <SCORE.INTRA>
0.100386

>  <SCORE.INTRA.DIHEDRAL>
2.96852

>  <SCORE.INTRA.DIHEDRAL.0>
8.42133

>  <SCORE.INTRA.POLAR>
0

>  <SCORE.INTRA.POLAR.0>
0

>  <SCORE.INTRA.REPUL>
0

>  <SCORE.INTRA.REPUL.0>
0

>  <SCORE.INTRA.VDW>
-1.38387

>  <SCORE.INTRA.VDW.0>
-1.06371

>  <SCORE.INTRA.norm>
0.00323827

>  <SCORE.RESTR>
0

>  <SCORE.RESTR.CAVITY>
0

>  <SCORE.RESTR.norm>
0

>  <SCORE.SYSTEM>
1.0177

>  <SCORE.SYSTEM.CONST>
0

>  <SCORE.SYSTEM.DIHEDRAL>
0.413589

>  <SCORE.SYSTEM.VDW>
0.810908

>  <SCORE.SYSTEM.norm>
0.0328291

>  <SCORE.heavy>
31

>  <SCORE.norm>
-0.190989

$$$$
XAC_3REY_CCD_neutral
  rDOCK(R)          3D
libRbt.so/26.09/alpha
 35 37  0  0  0  0  0  0  0  0999 V2000
   48.2299   21.6847   37.8975 C   0  0  0  0  0  0
   50.9860   21.5169   37.3030 N   0  0  0  0  0  0
   47.0377   21.7966   38.2082 O   0  0  0  0  0  0
   50.0606   20.8511   36.5288 C   0  0  0  0  0  0
   48.7198   20.9292   36.8680 N   0  0  0  0  0  0
   50.4349   20.1822   35.5538 O   0  0  0  0  0  0
   50.3512   23.5477   40.1652 C   0  0  0  0  0  0
   51.2900   23.0497   39.3358 N   0  0  0  0  0  0
   51.4946   26.5997   44.8333 O   0  0  0  0  0  0
   50.5651   22.3016   38.4052 C   0  0  0  0  0  0
   49.1133   23.1601   39.7915 N   0  0  0  0  0  0
   52.1558   24.6900   47.1086 O   0  0  0  0  0  0
   49.2511   22.3674   38.6678 C   0  0  0  0  0  0
   50.3168   23.8363   46.1182 N   0  0  0  0  0  0
   47.7498   20.1017   36.1146 C   0  0  0  0  0  0
   48.2938   22.2029   47.4380 N   0  0  0  0  0  0
   47.2326   20.8411   34.8647 C   0  0  0  0  0  0
   52.4285   21.4087   37.0432 C   0  0  0  0  0  0
   52.8342   22.1371   35.7498 C   0  0  0  0  0  0
   52.4828   23.6283   35.7864 C   0  0  0  0  0  0
   46.2748   19.9919   34.0238 C   0  0  0  0  0  0
   51.2663   25.9131   43.6599 C   0  0  0  0  0  0
   52.2123   25.7714   42.6153 C   0  0  0  0  0  0
   51.9079   25.0095   41.4704 C   0  0  0  0  0  0
   50.6486   24.3806   41.3366 C   0  0  0  0  0  0
   49.6924   24.5520   42.3633 C   0  0  0  0  0  0
   50.0016   25.3104   43.5112 C   0  0  0  0  0  0
   50.7187   26.2512   45.9763 C   0  0  0  0  0  0
   51.1256   24.8517   46.4486 C   0  0  0  0  0  0
   50.5323   22.4370   46.4567 C   0  0  0  0  0  0
   49.7128   22.0682   47.7039 C   0  0  0  0  0  0
   48.2549   23.4023   40.2439 H   0  0  0  0  0  0
   49.4949   24.0582   45.5942 H   0  0  0  0  0  0
   48.0704   21.7440   46.5784 H   0  0  0  0  0  0
   47.7738   21.7850   48.1836 H   0  0  0  0  0  0
  1  3  2  0  0  0
  1  5  1  0  0  0
  1 13  1  0  0  0
  2  4  1  0  0  0
  2 10  1  0  0  0
  2 18  1  0  0  0
  4  5  1  0  0  0
  4  6  2  0  0  0
  5 15  1  0  0  0
  7  8  2  0  0  0
  7 11  1  0  0  0
  7 25  1  0  0  0
  8 10  1  0  0  0
  9 22  1  0  0  0
  9 28  1  0  0  0
 10 13  2  0  0  0
 11 13  1  0  0  0
 12 29  2  0  0  0
 14 29  1  0  0  0
 14 30  1  0  0  0
 15 17  1  0  0  0
 16 31  1  0  0  0
 17 21  1  0  0  0
 18 19  1  0  0  0
 19 20  1  0  0  0
 22 23  2  0  0  0
 22 27  1  0  0  0
 23 24  1  0  0  0
 24 25  2  0  0  0
 25 26  1  0  0  0
 26 27  2  0  0  0
 28 29  1  0  0  0
 30 31  1  0  0  0
 11 32  1  0  0  0
 14 33  1  0  0  0
 16 34  1  0  0  0
 16 35  1  0  0  0
M  END
>  <CHROM.0>
63.48884486,-62.96767951,138.73441269,-165.54038435

>  <CHROM.1>
70.66064298,94.07402093,17.09717325,-156.01269360,68.76451756,97.93474303
177.37311077,48.46567608,58.96903823,78.77506722,63.26312123,50.13887529
22.98087587,40.64571395,1.73176814,-0.61669380,-1.79882172

>  <Name>
XAC_3REY_CCD_neutral

>  <RI>
-1.87621e+09

>  <Rbt.Current_Directory>
/mnt/nfs/CX900004_DS117/sbdd-project/references/stage5/d021_rdock_3REY_XAC_single_shot_qualification_20260917

>  <Rbt.Executable>
rbdock - v26.09-alpha

>  <Rbt.Library>
libRbt.so (26.09, Buildalpha)

>  <Rbt.Parameter_File>
dock.prm

>  <Rbt.Receptor>
3REY_rdock.prm

>  <SCORE>
-12.4622

>  <SCORE.INTER>
-14.1153

>  <SCORE.INTER.CONST>
1

>  <SCORE.INTER.POLAR>
-1.90655

>  <SCORE.INTER.REPUL>
0

>  <SCORE.INTER.ROT>
11

>  <SCORE.INTER.VDW>
-24.0331

>  <SCORE.INTER.norm>
-0.455333

>  <SCORE.INTRA>
1.06756

>  <SCORE.INTRA.DIHEDRAL>
1.234

>  <SCORE.INTRA.DIHEDRAL.0>
8.42133

>  <SCORE.INTRA.POLAR>
0

>  <SCORE.INTRA.POLAR.0>
0

>  <SCORE.INTRA.REPUL>
0

>  <SCORE.INTRA.REPUL.0>
0

>  <SCORE.INTRA.VDW>
0.450555

>  <SCORE.INTRA.VDW.0>
-1.06371

>  <SCORE.INTRA.norm>
0.0344373

>  <SCORE.RESTR>
0

>  <SCORE.RESTR.CAVITY>
0

>  <SCORE.RESTR.norm>
0

>  <SCORE.SYSTEM>
0.585592

>  <SCORE.SYSTEM.CONST>
0

>  <SCORE.SYSTEM.DIHEDRAL>
2.49703

>  <SCORE.SYSTEM.VDW>
-0.662925

>  <SCORE.SYSTEM.norm>
0.0188901

>  <SCORE.heavy>
31

>  <SCORE.norm>
-0.402006

$$$$
XAC_3REY_CCD_neutral
  rDOCK(R)          3D
libRbt.so/26.09/alpha
 35 37  0  0  0  0  0  0  0  0999 V2000
   47.2715   21.1554   36.7047 C   0  0  0  0  0  0
   49.8812   21.3253   35.6380 N   0  0  0  0  0  0
   46.1490   21.1153   37.2231 O   0  0  0  0  0  0
   48.8894   20.6518   34.9587 C   0  0  0  0  0  0
   47.6290   20.5606   35.5261 N   0  0  0  0  0  0
   49.1361   20.1256   33.8631 O   0  0  0  0  0  0
   49.6062   22.9829   38.7837 C   0  0  0  0  0  0
   50.4187   22.6677   37.7553 N   0  0  0  0  0  0
   51.3128   25.6472   43.5168 O   0  0  0  0  0  0
   49.6021   21.9486   36.8795 C   0  0  0  0  0  0
   48.3569   22.5130   38.5816 N   0  0  0  0  0  0
   51.3437   27.8322   45.4768 O   0  0  0  0  0  0
   48.3553   21.8557   37.3659 C   0  0  0  0  0  0
   53.5402   27.3192   45.4172 N   0  0  0  0  0  0
   46.6101   19.7204   34.8558 C   0  0  0  0  0  0
   54.4063   29.8585   48.0042 N   0  0  0  0  0  0
   45.6091   20.5804   34.0589 C   0  0  0  0  0  0
   51.2580   21.3888   35.1275 C   0  0  0  0  0  0
   51.5091   22.6707   34.3140 C   0  0  0  0  0  0
   50.6892   22.7093   33.0199 C   0  0  0  0  0  0
   46.2515   21.2858   32.8608 C   0  0  0  0  0  0
   50.9360   25.0627   42.3265 C   0  0  0  0  0  0
   51.6951   25.1123   41.1318 C   0  0  0  0  0  0
   51.2541   24.4434   39.9733 C   0  0  0  0  0  0
   50.0398   23.7188   39.9773 C   0  0  0  0  0  0
   49.2654   23.6995   41.1595 C   0  0  0  0  0  0
   49.7120   24.3651   42.3197 C   0  0  0  0  0  0
   52.1540   26.7959   43.4633 C   0  0  0  0  0  0
   52.3152   27.3636   44.8772 C   0  0  0  0  0  0
   53.9031   27.8171   46.7361 C   0  0  0  0  0  0
   54.0803   29.3434   46.6886 C   0  0  0  0  0  0
   47.5765   22.6211   39.1977 H   0  0  0  0  0  0
   54.2678   26.9092   44.8676 H   0  0  0  0  0  0
   55.3229   29.5551   48.2636 H   0  0  0  0  0  0
   54.3790   30.8586   47.9868 H   0  0  0  0  0  0
  1  3  2  0  0  0
  1  5  1  0  0  0
  1 13  1  0  0  0
  2  4  1  0  0  0
  2 10  1  0  0  0
  2 18  1  0  0  0
  4  5  1  0  0  0
  4  6  2  0  0  0
  5 15  1  0  0  0
  7  8  2  0  0  0
  7 11  1  0  0  0
  7 25  1  0  0  0
  8 10  1  0  0  0
  9 22  1  0  0  0
  9 28  1  0  0  0
 10 13  2  0  0  0
 11 13  1  0  0  0
 12 29  2  0  0  0
 14 29  1  0  0  0
 14 30  1  0  0  0
 15 17  1  0  0  0
 16 31  1  0  0  0
 17 21  1  0  0  0
 18 19  1  0  0  0
 19 20  1  0  0  0
 22 23  2  0  0  0
 22 27  1  0  0  0
 23 24  1  0  0  0
 24 25  2  0  0  0
 25 26  1  0  0  0
 26 27  2  0  0  0
 28 29  1  0  0  0
 30 31  1  0  0  0
 11 32  1  0  0  0
 14 33  1  0  0  0
 16 34  1  0  0  0
 16 35  1  0  0  0
M  END
>  <CHROM.0>
64.69879714,-60.35566759,-23.53271410,4.28811493

>  <CHROM.1>
94.98931127,80.74547564,16.48561443,27.73308377,173.79606479,-79.60461409
66.83378908,68.70025012,-66.05492260,-65.19699291,178.44000354,50.12391853
23.70856519,39.34132134,1.96166174,-0.39087339,-1.97376454

>  <Name>
XAC_3REY_CCD_neutral

>  <RI>
-1.87621e+09

>  <Rbt.Current_Directory>
/mnt/nfs/CX900004_DS117/sbdd-project/references/stage5/d021_rdock_3REY_XAC_single_shot_qualification_20260917

>  <Rbt.Executable>
rbdock - v26.09-alpha

>  <Rbt.Library>
libRbt.so (26.09, Buildalpha)

>  <Rbt.Parameter_File>
dock.prm

>  <Rbt.Receptor>
3REY_rdock.prm

>  <SCORE>
-7.83286

>  <SCORE.INTER>
-7.50178

>  <SCORE.INTER.CONST>
1

>  <SCORE.INTER.POLAR>
-0.821958

>  <SCORE.INTER.REPUL>
0.0276411

>  <SCORE.INTER.ROT>
11

>  <SCORE.INTER.VDW>
-21.2453

>  <SCORE.INTER.norm>
-0.241993

>  <SCORE.INTRA>
-0.354287

>  <SCORE.INTRA.DIHEDRAL>
1.34155

>  <SCORE.INTRA.DIHEDRAL.0>
8.42133

>  <SCORE.INTRA.POLAR>
0

>  <SCORE.INTRA.POLAR.0>
0

>  <SCORE.INTRA.REPUL>
0

>  <SCORE.INTRA.REPUL.0>
0

>  <SCORE.INTRA.VDW>
-1.02506

>  <SCORE.INTRA.VDW.0>
-1.06371

>  <SCORE.INTRA.norm>
-0.0114286

>  <SCORE.RESTR>
0

>  <SCORE.RESTR.CAVITY>
0

>  <SCORE.RESTR.norm>
0

>  <SCORE.SYSTEM>
0.0232124

>  <SCORE.SYSTEM.CONST>
0

>  <SCORE.SYSTEM.DIHEDRAL>
0.906176

>  <SCORE.SYSTEM.VDW>
-0.429876

>  <SCORE.SYSTEM.norm>
0.000748787

>  <SCORE.heavy>
31

>  <SCORE.norm>
-0.252673

$$$$
XAC_3REY_CCD_neutral
  rDOCK(R)          3D
libRbt.so/26.09/alpha
 35 37  0  0  0  0  0  0  0  0999 V2000
   52.2682   23.2945   33.7687 C   0  0  0  0  0  0
   49.4961   22.7686   33.6401 N   0  0  0  0  0  0
   53.4789   23.5180   33.8896 O   0  0  0  0  0  0
   50.2147   23.0234   32.4922 C   0  0  0  0  0  0
   51.5663   23.3090   32.5949 N   0  0  0  0  0  0
   49.6468   23.0095   31.3898 O   0  0  0  0  0  0
   50.7226   22.6949   36.9882 C   0  0  0  0  0  0
   49.6465   22.5461   36.1900 N   0  0  0  0  0  0
   50.6467   22.4992   42.6776 O   0  0  0  0  0  0
   50.1415   22.7602   34.9015 C   0  0  0  0  0  0
   51.8305   22.9724   36.2685 N   0  0  0  0  0  0
   51.5518   21.2049   45.5380 O   0  0  0  0  0  0
   51.4588   23.0115   34.9380 C   0  0  0  0  0  0
   49.4533   22.0224   45.3994 N   0  0  0  0  0  0
   52.2987   23.7154   31.3735 C   0  0  0  0  0  0
   49.1219   24.1921   48.3897 N   0  0  0  0  0  0
   52.3073   25.2480   31.2080 C   0  0  0  0  0  0
   48.0450   22.5380   33.6054 C   0  0  0  0  0  0
   47.6855   21.0904   33.9841 C   0  0  0  0  0  0
   48.0569   20.0910   32.8833 C   0  0  0  0  0  0
   53.0937   25.7100   29.9775 C   0  0  0  0  0  0
   50.5948   22.5016   41.3000 C   0  0  0  0  0  0
   49.3987   22.5138   40.5415 C   0  0  0  0  0  0
   49.4420   22.5647   39.1345 C   0  0  0  0  0  0
   50.6799   22.5934   38.4517 C   0  0  0  0  0  0
   51.8729   22.5453   39.2082 C   0  0  0  0  0  0
   51.8270   22.5003   40.6169 C   0  0  0  0  0  0
   50.5539   21.2465   43.3501 C   0  0  0  0  0  0
   50.5590   21.4899   44.8627 C   0  0  0  0  0  0
   49.2538   22.3160   46.8112 C   0  0  0  0  0  0
   49.6422   23.7746   47.1023 C   0  0  0  0  0  0
   52.7505   23.1216   36.6313 H   0  0  0  0  0  0
   48.7005   22.2365   44.7775 H   0  0  0  0  0  0
   49.5662   23.6672   49.1153 H   0  0  0  0  0  0
   49.3054   25.1665   48.5234 H   0  0  0  0  0  0
  1  3  2  0  0  0
  1  5  1  0  0  0
  1 13  1  0  0  0
  2  4  1  0  0  0
  2 10  1  0  0  0
  2 18  1  0  0  0
  4  5  1  0  0  0
  4  6  2  0  0  0
  5 15  1  0  0  0
  7  8  2  0  0  0
  7 11  1  0  0  0
  7 25  1  0  0  0
  8 10  1  0  0  0
  9 22  1  0  0  0
  9 28  1  0  0  0
 10 13  2  0  0  0
 11 13  1  0  0  0
 12 29  2  0  0  0
 14 29  1  0  0  0
 14 30  1  0  0  0
 15 17  1  0  0  0
 16 31  1  0  0  0
 17 21  1  0  0  0
 18 19  1  0  0  0
 19 20  1  0  0  0
 22 23  2  0  0  0
 22 27  1  0  0  0
 23 24  1  0  0  0
 24 25  2  0  0  0
 25 26  1  0  0  0
 26 27  2  0  0  0
 28 29  1  0  0  0
 30 31  1  0  0  0
 11 32  1  0  0  0
 14 33  1  0  0  0
 16 34  1  0  0  0
 16 35  1  0  0  0
M  END
>  <CHROM.0>
62.65108493,-58.43417562,-0.34572015,-176.16956640

>  <CHROM.1>
112.73773112,-85.39218574,-11.38118382,85.13853030,-177.04258190,93.48607137
178.21524332,65.54454138,-72.25793281,-107.40064062,164.59773708,50.53268180
22.76015260,37.90331299,-1.49013639,0.53183089,1.59223898

>  <Name>
XAC_3REY_CCD_neutral

>  <RI>
-1.87621e+09

>  <Rbt.Current_Directory>
/mnt/nfs/CX900004_DS117/sbdd-project/references/stage5/d021_rdock_3REY_XAC_single_shot_qualification_20260917

>  <Rbt.Executable>
rbdock - v26.09-alpha

>  <Rbt.Library>
libRbt.so (26.09, Buildalpha)

>  <Rbt.Parameter_File>
dock.prm

>  <Rbt.Receptor>
3REY_rdock.prm

>  <SCORE>
-9.77284

>  <SCORE.INTER>
-10.5261

>  <SCORE.INTER.CONST>
1

>  <SCORE.INTER.POLAR>
-1.91696

>  <SCORE.INTER.REPUL>
0

>  <SCORE.INTER.ROT>
11

>  <SCORE.INTER.VDW>
-20.4084

>  <SCORE.INTER.norm>
-0.33955

>  <SCORE.INTRA>
0.929046

>  <SCORE.INTRA.DIHEDRAL>
5.80447

>  <SCORE.INTRA.DIHEDRAL.0>
8.42133

>  <SCORE.INTRA.POLAR>
0

>  <SCORE.INTRA.POLAR.0>
0

>  <SCORE.INTRA.REPUL>
0

>  <SCORE.INTRA.REPUL.0>
0

>  <SCORE.INTRA.VDW>
-1.97319

>  <SCORE.INTRA.VDW.0>
-1.06371

>  <SCORE.INTRA.norm>
0.0299692

>  <SCORE.RESTR>
0

>  <SCORE.RESTR.CAVITY>
0

>  <SCORE.RESTR.norm>
0

>  <SCORE.SYSTEM>
-0.175833

>  <SCORE.SYSTEM.CONST>
0

>  <SCORE.SYSTEM.DIHEDRAL>
0.072507

>  <SCORE.SYSTEM.VDW>
-0.212087

>  <SCORE.SYSTEM.norm>
-0.00567204

>  <SCORE.heavy>
31

>  <SCORE.norm>
-0.315253

$$$$
XAC_3REY_CCD_neutral
  rDOCK(R)          3D
libRbt.so/26.09/alpha
 35 37  0  0  0  0  0  0  0  0999 V2000
   47.9817   23.3712   31.2762 C   0  0  0  0  0  0
   50.5283   24.4757   30.7545 N   0  0  0  0  0  0
   46.8869   22.8725   31.5645 O   0  0  0  0  0  0
   49.5506   24.4801   29.7834 C   0  0  0  0  0  0
   48.3235   23.9012   30.0626 N   0  0  0  0  0  0
   49.7815   24.9841   28.6740 O   0  0  0  0  0  0
   50.2889   23.1554   34.0588 C   0  0  0  0  0  0
   51.0742   23.7864   33.1630 N   0  0  0  0  0  0
   51.9660   21.4233   39.2164 O   0  0  0  0  0  0
   50.2656   23.9223   32.0322 C   0  0  0  0  0  0
   49.0628   22.9129   33.5490 N   0  0  0  0  0  0
   54.2120   21.6839   41.9664 O   0  0  0  0  0  0
   49.0487   23.4045   32.2574 C   0  0  0  0  0  0
   52.1688   20.7546   41.7361 N   0  0  0  0  0  0
   47.3293   23.7884   28.9707 C   0  0  0  0  0  0
   49.6323   20.6347   43.0948 N   0  0  0  0  0  0
   46.5348   25.0981   28.7973 C   0  0  0  0  0  0
   51.8756   25.0020   30.4937 C   0  0  0  0  0  0
   52.7381   24.0026   29.7028 C   0  0  0  0  0  0
   54.1380   24.5499   29.4046 C   0  0  0  0  0  0
   45.4239   24.9867   27.7489 C   0  0  0  0  0  0
   51.6128   21.9069   37.9747 C   0  0  0  0  0  0
   52.4947   22.5802   37.0945 C   0  0  0  0  0  0
   52.0581   22.9977   35.8220 C   0  0  0  0  0  0
   50.7282   22.7626   35.4031 C   0  0  0  0  0  0
   49.8390   22.1224   36.2959 C   0  0  0  0  0  0
   50.2801   21.7001   37.5670 C   0  0  0  0  0  0
   53.1502   21.9332   39.8228 C   0  0  0  0  0  0
   53.2209   21.4417   41.2722 C   0  0  0  0  0  0
   52.0474   20.1921   43.0733 C   0  0  0  0  0  0
   50.8727   20.8517   43.8137 C   0  0  0  0  0  0
   48.3044   22.4613   34.0193 H   0  0  0  0  0  0
   51.4012   20.6160   41.1108 H   0  0  0  0  0  0
   48.8614   20.9089   43.6693 H   0  0  0  0  0  0
   49.6332   21.1801   42.2561 H   0  0  0  0  0  0
  1  3  2  0  0  0
  1  5  1  0  0  0
  1 13  1  0  0  0
  2  4  1  0  0  0
  2 10  1  0  0  0
  2 18  1  0  0  0
  4  5  1  0  0  0
  4  6  2  0  0  0
  5 15  1  0  0  0
  7  8  2  0  0  0
  7 11  1  0  0  0
  7 25  1  0  0  0
  8 10  1  0  0  0
  9 22  1  0  0  0
  9 28  1  0  0  0
 10 13  2  0  0  0
 11 13  1  0  0  0
 12 29  2  0  0  0
 14 29  1  0  0  0
 14 30  1  0  0  0
 15 17  1  0  0  0
 16 31  1  0  0  0
 17 21  1  0  0  0
 18 19  1  0  0  0
 19 20  1  0  0  0
 22 23  2  0  0  0
 22 27  1  0  0  0
 23 24  1  0  0  0
 24 25  2  0  0  0
 25 26  1  0  0  0
 26 27  2  0  0  0
 28 29  1  0  0  0
 30 31  1  0  0  0
 11 32  1  0  0  0
 14 33  1  0  0  0
 16 34  1  0  0  0
 16 35  1  0  0  0
M  END
>  <CHROM.0>
62.52939111,163.67841496,-175.22286826,-166.52980034

>  <CHROM.1>
-78.48814950,99.29655159,-2.13263504,18.27574010,170.64039817,117.14376697
-175.63269732,169.01890740,179.04683148,174.94501224,59.60443461,50.47894098
22.94832001,34.75775180,1.81592085,-0.09988225,-1.28287612

>  <Name>
XAC_3REY_CCD_neutral

>  <RI>
-1.87621e+09

>  <Rbt.Current_Directory>
/mnt/nfs/CX900004_DS117/sbdd-project/references/stage5/d021_rdock_3REY_XAC_single_shot_qualification_20260917

>  <Rbt.Executable>
rbdock - v26.09-alpha

>  <Rbt.Library>
libRbt.so (26.09, Buildalpha)

>  <Rbt.Parameter_File>
dock.prm

>  <Rbt.Receptor>
3REY_rdock.prm

>  <SCORE>
-8.17908

>  <SCORE.INTER>
-8.00535

>  <SCORE.INTER.CONST>
1

>  <SCORE.INTER.POLAR>
-0.953219

>  <SCORE.INTER.REPUL>
0

>  <SCORE.INTER.ROT>
11

>  <SCORE.INTER.VDW>
-21.1644

>  <SCORE.INTER.norm>
-0.258237

>  <SCORE.INTRA>
-1.22912

>  <SCORE.INTRA.DIHEDRAL>
0.0342679

>  <SCORE.INTRA.DIHEDRAL.0>
8.42133

>  <SCORE.INTRA.POLAR>
-0.148512

>  <SCORE.INTRA.POLAR.0>
0

>  <SCORE.INTRA.REPUL>
0

>  <SCORE.INTRA.REPUL.0>
0

>  <SCORE.INTRA.VDW>
-0.741314

>  <SCORE.INTRA.VDW.0>
-1.06371

>  <SCORE.INTRA.norm>
-0.0396491

>  <SCORE.RESTR>
0

>  <SCORE.RESTR.CAVITY>
0

>  <SCORE.RESTR.norm>
0

>  <SCORE.SYSTEM>
1.0554

>  <SCORE.SYSTEM.CONST>
0

>  <SCORE.SYSTEM.DIHEDRAL>
1.56667

>  <SCORE.SYSTEM.VDW>
0.272062

>  <SCORE.SYSTEM.norm>
0.034045

>  <SCORE.heavy>
31

>  <SCORE.norm>
-0.263841

$$$$
XAC_3REY_CCD_neutral
  rDOCK(R)          3D
libRbt.so/26.09/alpha
 35 37  0  0  0  0  0  0  0  0999 V2000
   49.7605   26.3569   44.7903 C   0  0  0  0  0  0
   52.5515   26.0513   44.4824 N   0  0  0  0  0  0
   48.5300   26.4557   44.8710 O   0  0  0  0  0  0
   52.0379   26.7689   45.5408 C   0  0  0  0  0  0
   50.6655   26.9259   45.6435 N   0  0  0  0  0  0
   52.8029   27.2754   46.3753 O   0  0  0  0  0  0
   50.7283   24.4290   41.8818 C   0  0  0  0  0  0
   51.9475   24.6971   42.3906 N   0  0  0  0  0  0
   49.9419   21.3476   37.1595 O   0  0  0  0  0  0
   51.6838   25.4504   43.5370 C   0  0  0  0  0  0
   49.7513   24.9589   42.6479 N   0  0  0  0  0  0
   49.6526   19.4837   35.2113 O   0  0  0  0  0  0
   50.3620   25.6079   43.7042 C   0  0  0  0  0  0
   47.8465   20.5445   34.3721 N   0  0  0  0  0  0
   50.1317   27.8114   46.7039 C   0  0  0  0  0  0
   46.9355   17.8356   32.0050 N   0  0  0  0  0  0
   49.8639   27.0301   48.0056 C   0  0  0  0  0  0
   54.0000   25.9165   44.2735 C   0  0  0  0  0  0
   54.5226   26.9116   43.2224 C   0  0  0  0  0  0
   54.4019   28.3668   43.6874 C   0  0  0  0  0  0
   49.3050   27.9124   49.1258 C   0  0  0  0  0  0
   50.0629   22.1360   38.2839 C   0  0  0  0  0  0
   48.9712   22.6525   39.0238 C   0  0  0  0  0  0
   49.1899   23.4106   40.1906 C   0  0  0  0  0  0
   50.5034   23.6800   40.6398 C   0  0  0  0  0  0
   51.5926   23.1942   39.8812 C   0  0  0  0  0  0
   51.3709   22.4305   38.7166 C   0  0  0  0  0  0
   48.6413   21.1597   36.6089 C   0  0  0  0  0  0
   48.7560   20.3233   35.3303 C   0  0  0  0  0  0
   47.7914   19.8682   33.0842 C   0  0  0  0  0  0
   46.7642   18.7257   33.1367 C   0  0  0  0  0  0
   48.7672   24.8934   42.4820 H   0  0  0  0  0  0
   47.1455   21.2329   34.5570 H   0  0  0  0  0  0
   46.4660   18.2151   31.2080 H   0  0  0  0  0  0
   47.9104   17.7381   31.8021 H   0  0  0  0  0  0
  1  3  2  0  0  0
  1  5  1  0  0  0
  1 13  1  0  0  0
  2  4  1  0  0  0
  2 10  1  0  0  0
  2 18  1  0  0  0
  4  5  1  0  0  0
  4  6  2  0  0  0
  5 15  1  0  0  0
  7  8  2  0  0  0
  7 11  1  0  0  0
  7 25  1  0  0  0
  8 10  1  0  0  0
  9 22  1  0  0  0
  9 28  1  0  0  0
 10 13  2  0  0  0
 11 13  1  0  0  0
 12 29  2  0  0  0
 14 29  1  0  0  0
 14 30  1  0  0  0
 15 17  1  0  0  0
 16 31  1  0  0  0
 17 21  1  0  0  0
 18 19  1  0  0  0
 19 20  1  0  0  0
 22 23  2  0  0  0
 22 27  1  0  0  0
 23 24  1  0  0  0
 24 25  2  0  0  0
 25 26  1  0  0  0
 26 27  2  0  0  0
 28 29  1  0  0  0
 30 31  1  0  0  0
 11 32  1  0  0  0
 14 33  1  0  0  0
 16 34  1  0  0  0
 16 35  1  0  0  0
M  END
>  <CHROM.0>
-55.50832105,-62.02055012,8.29527305,12.28344834

>  <CHROM.1>
-98.67641300,92.39277046,178.36087130,7.49917501,176.80228973,98.16208009
-179.77380890,-82.67674089,65.97920068,30.65544055,-165.33734435,50.33146266
24.03369467,41.07071066,1.33444586,0.21186505,1.05572215

>  <Name>
XAC_3REY_CCD_neutral

>  <RI>
-1.87621e+09

>  <Rbt.Current_Directory>
/mnt/nfs/CX900004_DS117/sbdd-project/references/stage5/d021_rdock_3REY_XAC_single_shot_qualification_20260917

>  <Rbt.Executable>
rbdock - v26.09-alpha

>  <Rbt.Library>
libRbt.so (26.09, Buildalpha)

>  <Rbt.Parameter_File>
dock.prm

>  <Rbt.Receptor>
3REY_rdock.prm

>  <SCORE>
-8.15471

>  <SCORE.INTER>
-9.04846

>  <SCORE.INTER.CONST>
1

>  <SCORE.INTER.POLAR>
-0.51201

>  <SCORE.INTER.REPUL>
0

>  <SCORE.INTER.ROT>
11

>  <SCORE.INTER.VDW>
-23.7076

>  <SCORE.INTER.norm>
-0.291886

>  <SCORE.INTRA>
0.184955

>  <SCORE.INTRA.DIHEDRAL>
0.645048

>  <SCORE.INTRA.DIHEDRAL.0>
8.42133

>  <SCORE.INTRA.POLAR>
0

>  <SCORE.INTRA.POLAR.0>
0

>  <SCORE.INTRA.REPUL>
0

>  <SCORE.INTRA.REPUL.0>
0

>  <SCORE.INTRA.VDW>
-0.137569

>  <SCORE.INTRA.VDW.0>
-1.06371

>  <SCORE.INTRA.norm>
0.00596629

>  <SCORE.RESTR>
0

>  <SCORE.RESTR.CAVITY>
0

>  <SCORE.RESTR.norm>
0

>  <SCORE.SYSTEM>
0.708804

>  <SCORE.SYSTEM.CONST>
0

>  <SCORE.SYSTEM.DIHEDRAL>
0.440945

>  <SCORE.SYSTEM.VDW>
0.488331

>  <SCORE.SYSTEM.norm>
0.0228646

>  <SCORE.heavy>
31

>  <SCORE.norm>
-0.263055

$$$$
XAC_3REY_CCD_neutral
  rDOCK(R)          3D
libRbt.so/26.09/alpha
 35 37  0  0  0  0  0  0  0  0999 V2000
   49.0185   23.6876   30.6887 C   0  0  0  0  0  0
   47.0482   22.0210   31.8368 N   0  0  0  0  0  0
   49.9159   24.4117   30.2406 O   0  0  0  0  0  0
   46.8828   22.5285   30.5664 C   0  0  0  0  0  0
   47.8538   23.3685   30.0465 N   0  0  0  0  0  0
   45.8683   22.2431   29.9124 O   0  0  0  0  0  0
   49.7952   22.5696   34.0442 C   0  0  0  0  0  0
   48.6094   21.9525   33.8696 N   0  0  0  0  0  0
   52.7928   22.4983   38.8839 O   0  0  0  0  0  0
   48.2147   22.3237   32.5822 C   0  0  0  0  0  0
   50.1450   23.2758   32.9483 N   0  0  0  0  0  0
   50.7101   22.7135   40.4883 O   0  0  0  0  0  0
   49.1373   23.1163   32.0160 C   0  0  0  0  0  0
   51.3343   24.6782   41.4057 N   0  0  0  0  0  0
   47.6026   24.0169   28.7389 C   0  0  0  0  0  0
   49.6604   25.3623   44.6646 N   0  0  0  0  0  0
   46.5566   25.1426   28.8622 C   0  0  0  0  0  0
   46.0176   21.1898   32.4747 C   0  0  0  0  0  0
   46.5991   19.8732   33.0192 C   0  0  0  0  0  0
   47.0003   18.9067   31.8997 C   0  0  0  0  0  0
   46.1637   25.7418   27.5085 C   0  0  0  0  0  0
   52.0523   22.4342   37.7229 C   0  0  0  0  0  0
   50.9366   21.5838   37.5280 C   0  0  0  0  0  0
   50.2085   21.6203   36.3228 C   0  0  0  0  0  0
   50.5837   22.4986   35.2801 C   0  0  0  0  0  0
   51.7186   23.3213   35.4617 C   0  0  0  0  0  0
   52.4423   23.2870   36.6715 C   0  0  0  0  0  0
   52.7375   23.6987   39.6493 C   0  0  0  0  0  0
   51.5017   23.6579   40.5541 C   0  0  0  0  0  0
   50.2238   24.8331   42.3341 C   0  0  0  0  0  0
   50.7574   25.1598   43.7383 C   0  0  0  0  0  0
   50.9795   23.8146   32.8323 H   0  0  0  0  0  0
   52.0314   25.3948   41.4037 H   0  0  0  0  0  0
   50.0233   25.6097   45.5626 H   0  0  0  0  0  0
   49.0720   26.0986   44.3288 H   0  0  0  0  0  0
  1  3  2  0  0  0
  1  5  1  0  0  0
  1 13  1  0  0  0
  2  4  1  0  0  0
  2 10  1  0  0  0
  2 18  1  0  0  0
  4  5  1  0  0  0
  4  6  2  0  0  0
  5 15  1  0  0  0
  7  8  2  0  0  0
  7 11  1  0  0  0
  7 25  1  0  0  0
  8 10  1  0  0  0
  9 22  1  0  0  0
  9 28  1  0  0  0
 10 13  2  0  0  0
 11 13  1  0  0  0
 12 29  2  0  0  0
 14 29  1  0  0  0
 14 30  1  0  0  0
 15 17  1  0  0  0
 16 31  1  0  0  0
 17 21  1  0  0  0
 18 19  1  0  0  0
 19 20  1  0  0  0
 22 23  2  0  0  0
 22 27  1  0  0  0
 23 24  1  0  0  0
 24 25  2  0  0  0
 25 26  1  0  0  0
 26 27  2  0  0  0
 28 29  1  0  0  0
 30 31  1  0  0  0
 11 32  1  0  0  0
 14 33  1  0  0  0
 16 34  1  0  0  0
 16 35  1  0  0  0
M  END
>  <CHROM.0>
62.37433478,-62.03383202,11.97827056,11.80609149

>  <CHROM.1>
128.44561093,-104.21730539,8.06705678,-112.85298053,83.75585731,130.94610837
-174.12996472,-177.72660710,-70.57009416,-3.55785118,178.04373528,49.33479351
23.05122102,34.94664455,-2.30101699,1.05450561,2.15084911

>  <Name>
XAC_3REY_CCD_neutral

>  <RI>
-1.87621e+09

>  <Rbt.Current_Directory>
/mnt/nfs/CX900004_DS117/sbdd-project/references/stage5/d021_rdock_3REY_XAC_single_shot_qualification_20260917

>  <Rbt.Executable>
rbdock - v26.09-alpha

>  <Rbt.Library>
libRbt.so (26.09, Buildalpha)

>  <Rbt.Parameter_File>
dock.prm

>  <Rbt.Receptor>
3REY_rdock.prm

>  <SCORE>
-4.02831

>  <SCORE.INTER>
-6.16781

>  <SCORE.INTER.CONST>
1

>  <SCORE.INTER.POLAR>
0

>  <SCORE.INTER.REPUL>
0.00834153

>  <SCORE.INTER.ROT>
11

>  <SCORE.INTER.VDW>
-22.6095

>  <SCORE.INTER.norm>
-0.198961

>  <SCORE.INTRA>
2.26947

>  <SCORE.INTRA.DIHEDRAL>
6.39073

>  <SCORE.INTRA.DIHEDRAL.0>
8.42133

>  <SCORE.INTRA.POLAR>
0

>  <SCORE.INTRA.POLAR.0>
0

>  <SCORE.INTRA.REPUL>
0

>  <SCORE.INTRA.REPUL.0>
0

>  <SCORE.INTRA.VDW>
-0.925898

>  <SCORE.INTRA.VDW.0>
-1.06371

>  <SCORE.INTRA.norm>
0.0732086

>  <SCORE.RESTR>
0

>  <SCORE.RESTR.CAVITY>
0

>  <SCORE.RESTR.norm>
0

>  <SCORE.SYSTEM>
-0.12997

>  <SCORE.SYSTEM.CONST>
0

>  <SCORE.SYSTEM.DIHEDRAL>
0.460282

>  <SCORE.SYSTEM.VDW>
-0.360111

>  <SCORE.SYSTEM.norm>
-0.00419259

>  <SCORE.heavy>
31

>  <SCORE.norm>
-0.129945

$$$$
XAC_3REY_CCD_neutral
  rDOCK(R)          3D
libRbt.so/26.09/alpha
 35 37  0  0  0  0  0  0  0  0999 V2000
   51.4443   25.1190   41.5394 C   0  0  0  0  0  0
   50.9146   22.4781   42.3893 N   0  0  0  0  0  0
   51.6624   26.2572   41.1064 O   0  0  0  0  0  0
   51.3005   23.4415   43.2958 C   0  0  0  0  0  0
   51.5834   24.7186   42.8398 N   0  0  0  0  0  0
   51.4046   23.1550   44.4980 O   0  0  0  0  0  0
   50.4797   22.8689   38.8712 C   0  0  0  0  0  0
   50.4120   22.0210   39.9170 N   0  0  0  0  0  0
   49.6719   21.3339   33.4486 O   0  0  0  0  0  0
   50.7714   22.8025   41.0175 C   0  0  0  0  0  0
   50.8438   24.1067   39.2681 N   0  0  0  0  0  0
   47.4711   22.7827   33.5485 O   0  0  0  0  0  0
   51.0272   24.0634   40.6372 C   0  0  0  0  0  0
   46.1002   21.1687   32.7692 N   0  0  0  0  0  0
   52.1284   25.7078   43.7979 C   0  0  0  0  0  0
   43.6221   19.9963   33.7084 N   0  0  0  0  0  0
   53.5793   26.0909   43.4449 C   0  0  0  0  0  0
   50.6781   21.0863   42.7981 C   0  0  0  0  0  0
   49.2669   20.8919   43.3803 C   0  0  0  0  0  0
   49.0741   19.4979   43.9870 C   0  0  0  0  0  0
   54.5304   24.8905   43.4492 C   0  0  0  0  0  0
   49.7942   21.6701   34.7799 C   0  0  0  0  0  0
   49.3002   20.8900   35.8539 C   0  0  0  0  0  0
   49.5140   21.2885   37.1879 C   0  0  0  0  0  0
   50.2163   22.4804   37.4806 C   0  0  0  0  0  0
   50.6779   23.2765   36.4078 C   0  0  0  0  0  0
   50.4676   22.8724   35.0732 C   0  0  0  0  0  0
   48.4854   20.6639   33.0323 C   0  0  0  0  0  0
   47.3017   21.6306   33.1400 C   0  0  0  0  0  0
   44.8544   21.9206   32.8097 C   0  0  0  0  0  0
   43.9582   21.3878   33.9394 C   0  0  0  0  0  0
   50.9590   24.9074   38.6800 H   0  0  0  0  0  0
   46.0550   20.2271   32.4363 H   0  0  0  0  0  0
   44.4272   19.4269   33.8728 H   0  0  0  0  0  0
   42.8880   19.7229   34.3308 H   0  0  0  0  0  0
  1  3  2  0  0  0
  1  5  1  0  0  0
  1 13  1  0  0  0
  2  4  1  0  0  0
  2 10  1  0  0  0
  2 18  1  0  0  0
  4  5  1  0  0  0
  4  6  2  0  0  0
  5 15  1  0  0  0
  7  8  2  0  0  0
  7 11  1  0  0  0
  7 25  1  0  0  0
  8 10  1  0  0  0
  9 22  1  0  0  0
  9 28  1  0  0  0
 10 13  2  0  0  0
 11 13  1  0  0  0
 12 29  2  0  0  0
 14 29  1  0  0  0
 14 30  1  0  0  0
 15 17  1  0  0  0
 16 31  1  0  0  0
 17 21  1  0  0  0
 18 19  1  0  0  0
 19 20  1  0  0  0
 22 23  2  0  0  0
 22 27  1  0  0  0
 23 24  1  0  0  0
 24 25  2  0  0  0
 25 26  1  0  0  0
 26 27  2  0  0  0
 28 29  1  0  0  0
 30 31  1  0  0  0
 11 32  1  0  0  0
 14 33  1  0  0  0
 16 34  1  0  0  0
 16 35  1  0  0  0
M  END
>  <CHROM.0>
62.52602898,-60.70583946,-169.31736919,-171.59152827

>  <CHROM.1>
82.80509845,-64.15502058,17.93563516,35.06615768,68.41856206,-108.36308125
-59.54649359,72.31709735,-172.06805502,-0.56532829,-61.43924299,49.71766700
22.65176981,38.68656016,-0.90981908,-0.72883777,-1.35764031

>  <Name>
XAC_3REY_CCD_neutral

>  <RI>
-1.87621e+09

>  <Rbt.Current_Directory>
/mnt/nfs/CX900004_DS117/sbdd-project/references/stage5/d021_rdock_3REY_XAC_single_shot_qualification_20260917

>  <Rbt.Executable>
rbdock - v26.09-alpha

>  <Rbt.Library>
libRbt.so (26.09, Buildalpha)

>  <Rbt.Parameter_File>
dock.prm

>  <Rbt.Receptor>
3REY_rdock.prm

>  <SCORE>
-1.63705

>  <SCORE.INTER>
-1.71397

>  <SCORE.INTER.CONST>
1

>  <SCORE.INTER.POLAR>
0

>  <SCORE.INTER.REPUL>
0

>  <SCORE.INTER.ROT>
11

>  <SCORE.INTER.VDW>
-18.114

>  <SCORE.INTER.norm>
-0.0552895

>  <SCORE.INTRA>
0.0225357

>  <SCORE.INTRA.DIHEDRAL>
2.45762

>  <SCORE.INTRA.DIHEDRAL.0>
8.42133

>  <SCORE.INTRA.POLAR>
0

>  <SCORE.INTRA.POLAR.0>
0

>  <SCORE.INTRA.REPUL>
0

>  <SCORE.INTRA.REPUL.0>
0

>  <SCORE.INTRA.VDW>
-1.20627

>  <SCORE.INTRA.VDW.0>
-1.06371

>  <SCORE.INTRA.norm>
0.000726958

>  <SCORE.RESTR>
0

>  <SCORE.RESTR.CAVITY>
0

>  <SCORE.RESTR.norm>
0

>  <SCORE.SYSTEM>
0.054387

>  <SCORE.SYSTEM.CONST>
0

>  <SCORE.SYSTEM.DIHEDRAL>
0.305625

>  <SCORE.SYSTEM.VDW>
-0.0984256

>  <SCORE.SYSTEM.norm>
0.00175442

>  <SCORE.heavy>
31

>  <SCORE.norm>
-0.0528081

$$$$
XAC_3REY_CCD_neutral
  rDOCK(R)          3D
libRbt.so/26.09/alpha
 35 37  0  0  0  0  0  0  0  0999 V2000
   47.7012   21.3973   37.4437 C   0  0  0  0  0  0
   50.0275   22.0991   36.0038 N   0  0  0  0  0  0
   46.7045   21.1253   38.1242 O   0  0  0  0  0  0
   49.0736   21.2812   35.4381 C   0  0  0  0  0  0
   47.9603   20.9311   36.1843 N   0  0  0  0  0  0
   49.2268   20.8581   34.2824 O   0  0  0  0  0  0
   49.9821   23.5395   39.2661 C   0  0  0  0  0  0
   50.6576   23.4266   38.1049 N   0  0  0  0  0  0
   51.9340   26.2705   43.8645 O   0  0  0  0  0  0
   49.8496   22.6053   37.3153 C   0  0  0  0  0  0
   48.8207   22.8528   39.2249 N   0  0  0  0  0  0
   52.0312   28.1496   45.9880 O   0  0  0  0  0  0
   48.7365   22.2594   37.9795 C   0  0  0  0  0  0
   54.2090   28.3587   45.4358 N   0  0  0  0  0  0
   47.0114   19.9442   35.6195 C   0  0  0  0  0  0
   55.0379   28.3341   49.0662 N   0  0  0  0  0  0
   46.1721   20.5596   34.4822 C   0  0  0  0  0  0
   51.2680   22.4415   35.2939 C   0  0  0  0  0  0
   51.0974   23.6911   34.4120 C   0  0  0  0  0  0
   52.3711   24.0306   33.6304 C   0  0  0  0  0  0
   45.3264   19.5223   33.7375 C   0  0  0  0  0  0
   51.4813   25.6764   42.7058 C   0  0  0  0  0  0
   52.0425   25.8881   41.4227 C   0  0  0  0  0  0
   51.5445   25.1994   40.2994 C   0  0  0  0  0  0
   50.4678   24.2919   40.4290 C   0  0  0  0  0  0
   49.8854   24.1081   41.7036 C   0  0  0  0  0  0
   50.3896   24.7943   42.8276 C   0  0  0  0  0  0
   52.6436   27.5011   43.7544 C   0  0  0  0  0  0
   52.9388   28.0352   45.1597 C   0  0  0  0  0  0
   54.6909   28.8940   46.7008 C   0  0  0  0  0  0
   54.7109   27.7846   47.7648 C   0  0  0  0  0  0
   48.1456   22.7861   39.9597 H   0  0  0  0  0  0
   54.8839   28.2210   44.7113 H   0  0  0  0  0  0
   55.9276   28.7881   49.0226 H   0  0  0  0  0  0
   54.3382   28.9974   49.3334 H   0  0  0  0  0  0
  1  3  2  0  0  0
  1  5  1  0  0  0
  1 13  1  0  0  0
  2  4  1  0  0  0
  2 10  1  0  0  0
  2 18  1  0  0  0
  4  5  1  0  0  0
  4  6  2  0  0  0
  5 15  1  0  0  0
  7  8  2  0  0  0
  7 11  1  0  0  0
  7 25  1  0  0  0
  8 10  1  0  0  0
  9 22  1  0  0  0
  9 28  1  0  0  0
 10 13  2  0  0  0
 11 13  1  0  0  0
 12 29  2  0  0  0
 14 29  1  0  0  0
 14 30  1  0  0  0
 15 17  1  0  0  0
 16 31  1  0  0  0
 17 21  1  0  0  0
 18 19  1  0  0  0
 19 20  1  0  0  0
 22 23  2  0  0  0
 22 27  1  0  0  0
 23 24  1  0  0  0
 24 25  2  0  0  0
 25 26  1  0  0  0
 26 27  2  0  0  0
 28 29  1  0  0  0
 30 31  1  0  0  0
 11 32  1  0  0  0
 14 33  1  0  0  0
 16 34  1  0  0  0
 16 35  1  0  0  0
M  END
>  <CHROM.0>
63.48076641,-62.07484686,151.96273897,-169.49613525

>  <CHROM.1>
88.16233680,109.29386999,14.45067489,24.11476076,175.06470299,73.49048008
171.63798825,-58.34429649,-178.09040093,-51.88231314,-173.32356486,50.53847091
24.08631267,39.83263790,2.04935072,-0.56979692,-1.84704098

>  <Name>
XAC_3REY_CCD_neutral

>  <RI>
-1.87621e+09

>  <Rbt.Current_Directory>
/mnt/nfs/CX900004_DS117/sbdd-project/references/stage5/d021_rdock_3REY_XAC_single_shot_qualification_20260917

>  <Rbt.Executable>
rbdock - v26.09-alpha

>  <Rbt.Library>
libRbt.so (26.09, Buildalpha)

>  <Rbt.Parameter_File>
dock.prm

>  <Rbt.Receptor>
3REY_rdock.prm

>  <SCORE>
-7.98142

>  <SCORE.INTER>
-8.21771

>  <SCORE.INTER.CONST>
1

>  <SCORE.INTER.POLAR>
-0.943508

>  <SCORE.INTER.REPUL>
0

>  <SCORE.INTER.ROT>
11

>  <SCORE.INTER.VDW>
-21.4098

>  <SCORE.INTER.norm>
-0.265087

>  <SCORE.INTRA>
-0.0289496

>  <SCORE.INTRA.DIHEDRAL>
0.85213

>  <SCORE.INTRA.DIHEDRAL.0>
8.42133

>  <SCORE.INTRA.POLAR>
0

>  <SCORE.INTRA.POLAR.0>
0

>  <SCORE.INTRA.REPUL>
0

>  <SCORE.INTRA.REPUL.0>
0

>  <SCORE.INTRA.VDW>
-0.455014

>  <SCORE.INTRA.VDW.0>
-1.06371

>  <SCORE.INTRA.norm>
-0.000933857

>  <SCORE.RESTR>
0.00117512

>  <SCORE.RESTR.CAVITY>
0.00117512

>  <SCORE.RESTR.norm>
3.79071e-05

>  <SCORE.SYSTEM>
0.264062

>  <SCORE.SYSTEM.CONST>
0

>  <SCORE.SYSTEM.DIHEDRAL>
1.30678

>  <SCORE.SYSTEM.VDW>
-0.389328

>  <SCORE.SYSTEM.norm>
0.00851812

>  <SCORE.heavy>
31

>  <SCORE.norm>
-0.257465

$$$$
XAC_3REY_CCD_neutral
  rDOCK(R)          3D
libRbt.so/26.09/alpha
 35 37  0  0  0  0  0  0  0  0999 V2000
   50.1712   24.9489   45.5152 C   0  0  0  0  0  0
   49.3492   22.2842   45.0667 N   0  0  0  0  0  0
   50.5413   26.1219   45.6477 O   0  0  0  0  0  0
   49.3653   22.8071   46.3416 C   0  0  0  0  0  0
   49.8046   24.1073   46.5292 N   0  0  0  0  0  0
   49.0040   22.1102   47.3018 O   0  0  0  0  0  0
   50.2843   23.9277   42.0429 C   0  0  0  0  0  0
   49.8215   22.7897   42.5978 N   0  0  0  0  0  0
   51.1677   24.5476   36.4528 O   0  0  0  0  0  0
   49.7388   23.0807   43.9615 C   0  0  0  0  0  0
   50.4746   24.8845   42.9759 N   0  0  0  0  0  0
   53.3366   24.1758   33.6593 O   0  0  0  0  0  0
   50.1242   24.3436   44.1985 C   0  0  0  0  0  0
   51.1206   24.5646   33.8322 N   0  0  0  0  0  0
   49.9483   24.6131   47.9137 C   0  0  0  0  0  0
   48.5812   23.8059   32.5951 N   0  0  0  0  0  0
   51.2676   24.1350   48.5520 C   0  0  0  0  0  0
   48.9703   20.8873   44.8117 C   0  0  0  0  0  0
   50.1393   19.9202   45.0693 C   0  0  0  0  0  0
   51.3094   20.1515   44.1072 C   0  0  0  0  0  0
   51.4484   24.6317   49.9895 C   0  0  0  0  0  0
   51.0224   24.4431   37.8197 C   0  0  0  0  0  0
   51.3911   25.4494   38.7458 C   0  0  0  0  0  0
   51.1608   25.2748   40.1244 C   0  0  0  0  0  0
   50.5673   24.0875   40.6116 C   0  0  0  0  0  0
   50.2323   23.0692   39.6904 C   0  0  0  0  0  0
   50.4585   23.2488   38.3101 C   0  0  0  0  0  0
   52.4067   24.1434   35.8771 C   0  0  0  0  0  0
   52.3249   24.2990   34.3552 C   0  0  0  0  0  0
   50.8360   24.7617   32.4182 C   0  0  0  0  0  0
   49.8610   23.6802   31.9252 C   0  0  0  0  0  0
   50.8073   25.8134   42.8126 H   0  0  0  0  0  0
   50.3514   24.6337   34.4670 H   0  0  0  0  0  0
   48.6993   23.6396   33.5738 H   0  0  0  0  0  0
   48.2208   24.7287   32.4552 H   0  0  0  0  0  0
  1  3  2  0  0  0
  1  5  1  0  0  0
  1 13  1  0  0  0
  2  4  1  0  0  0
  2 10  1  0  0  0
  2 18  1  0  0  0
  4  5  1  0  0  0
  4  6  2  0  0  0
  5 15  1  0  0  0
  7  8  2  0  0  0
  7 11  1  0  0  0
  7 25  1  0  0  0
  8 10  1  0  0  0
  9 22  1  0  0  0
  9 28  1  0  0  0
 10 13  2  0  0  0
 11 13  1  0  0  0
 12 29  2  0  0  0
 14 29  1  0  0  0
 14 30  1  0  0  0
 15 17  1  0  0  0
 16 31  1  0  0  0
 17 21  1  0  0  0
 18 19  1  0  0  0
 19 20  1  0  0  0
 22 23  2  0  0  0
 22 27  1  0  0  0
 23 24  1  0  0  0
 24 25  2  0  0  0
 25 26  1  0  0  0
 26 27  2  0  0  0
 28 29  1  0  0  0
 30 31  1  0  0  0
 11 32  1  0  0  0
 14 33  1  0  0  0
 16 34  1  0  0  0
 16 35  1  0  0  0
M  END
>  <CHROM.0>
-53.73126572,-59.66705520,3.38746748,-168.73313374

>  <CHROM.1>
-81.22827736,-97.07512287,-174.44750559,87.82553858,178.03386238,117.90641333
-179.65158536,-63.86329209,-64.24774891,170.46449398,64.15813537,50.52737150
23.71644037,41.22331026,-1.77275703,-1.22303652,-1.69188851

>  <Name>
XAC_3REY_CCD_neutral

>  <RI>
-1.87621e+09

>  <Rbt.Current_Directory>
/mnt/nfs/CX900004_DS117/sbdd-project/references/stage5/d021_rdock_3REY_XAC_single_shot_qualification_20260917

>  <Rbt.Executable>
rbdock - v26.09-alpha

>  <Rbt.Library>
libRbt.so (26.09, Buildalpha)

>  <Rbt.Parameter_File>
dock.prm

>  <Rbt.Receptor>
3REY_rdock.prm

>  <SCORE>
-8.36674

>  <SCORE.INTER>
-8.99629

>  <SCORE.INTER.CONST>
1

>  <SCORE.INTER.POLAR>
0

>  <SCORE.INTER.REPUL>
0

>  <SCORE.INTER.ROT>
11

>  <SCORE.INTER.VDW>
-25.3963

>  <SCORE.INTER.norm>
-0.290203

>  <SCORE.INTRA>
-0.0661292

>  <SCORE.INTRA.DIHEDRAL>
4.24869

>  <SCORE.INTRA.DIHEDRAL.0>
8.42133

>  <SCORE.INTRA.POLAR>
-0.139342

>  <SCORE.INTRA.POLAR.0>
0

>  <SCORE.INTRA.REPUL>
0

>  <SCORE.INTRA.REPUL.0>
0

>  <SCORE.INTRA.VDW>
-1.71671

>  <SCORE.INTRA.VDW.0>
-1.06371

>  <SCORE.INTRA.norm>
-0.0021332

>  <SCORE.RESTR>
0

>  <SCORE.RESTR.CAVITY>
0

>  <SCORE.RESTR.norm>
0

>  <SCORE.SYSTEM>
0.695683

>  <SCORE.SYSTEM.CONST>
0

>  <SCORE.SYSTEM.DIHEDRAL>
0.397297

>  <SCORE.SYSTEM.VDW>
0.497034

>  <SCORE.SYSTEM.norm>
0.0224414

>  <SCORE.heavy>
31

>  <SCORE.norm>
-0.269895

$$$$
XAC_3REY_CCD_neutral
  rDOCK(R)          3D
libRbt.so/26.09/alpha
 35 37  0  0  0  0  0  0  0  0999 V2000
   51.4628   25.1466   40.4960 C   0  0  0  0  0  0
   50.2733   23.2932   42.2644 N   0  0  0  0  0  0
   51.9547   25.9274   39.6721 O   0  0  0  0  0  0
   51.0914   24.2931   42.7439 C   0  0  0  0  0  0
   51.6840   25.1652   41.8456 N   0  0  0  0  0  0
   51.2995   24.3924   43.9625 O   0  0  0  0  0  0
   49.4005   22.6562   38.8656 C   0  0  0  0  0  0
   49.2439   22.2740   40.1489 N   0  0  0  0  0  0
   47.2297   19.8191   34.4327 O   0  0  0  0  0  0
   50.0121   23.1863   40.8758 C   0  0  0  0  0  0
   50.1997   23.7402   38.7724 N   0  0  0  0  0  0
   46.2921   22.7626   33.8113 O   0  0  0  0  0  0
   50.5871   24.0784   40.0552 C   0  0  0  0  0  0
   44.6603   21.2777   33.3384 N   0  0  0  0  0  0
   52.6673   26.1477   42.3566 C   0  0  0  0  0  0
   43.4530   22.9133   31.2179 N   0  0  0  0  0  0
   54.0127   25.4735   42.6910 C   0  0  0  0  0  0
   49.6796   22.2886   43.1580 C   0  0  0  0  0  0
   50.5770   21.0466   43.3006 C   0  0  0  0  0  0
   49.9341   19.9602   44.1694 C   0  0  0  0  0  0
   55.0168   26.4341   43.3350 C   0  0  0  0  0  0
   47.6773   20.5221   35.5308 C   0  0  0  0  0  0
   47.0130   20.5670   36.7809 C   0  0  0  0  0  0
   47.5703   21.2736   37.8644 C   0  0  0  0  0  0
   48.7978   21.9609   37.7222 C   0  0  0  0  0  0
   49.4422   21.9450   36.4643 C   0  0  0  0  0  0
   48.8851   21.2320   35.3827 C   0  0  0  0  0  0
   46.9957   20.5386   33.2253 C   0  0  0  0  0  0
   45.9460   21.6237   33.4857 C   0  0  0  0  0  0
   43.5176   22.1538   33.5520 C   0  0  0  0  0  0
   43.5910   23.3529   32.5928 C   0  0  0  0  0  0
   50.4625   24.2117   37.9305 H   0  0  0  0  0  0
   44.4690   20.3374   33.0579 H   0  0  0  0  0  0
   44.1126   22.1853   31.0326 H   0  0  0  0  0  0
   42.5256   22.5682   31.0697 H   0  0  0  0  0  0
  1  3  2  0  0  0
  1  5  1  0  0  0
  1 13  1  0  0  0
  2  4  1  0  0  0
  2 10  1  0  0  0
  2 18  1  0  0  0
  4  5  1  0  0  0
  4  6  2  0  0  0
  5 15  1  0  0  0
  7  8  2  0  0  0
  7 11  1  0  0  0
  7 25  1  0  0  0
  8 10  1  0  0  0
  9 22  1  0  0  0
  9 28  1  0  0  0
 10 13  2  0  0  0
 11 13  1  0  0  0
 12 29  2  0  0  0
 14 29  1  0  0  0
 14 30  1  0  0  0
 15 17  1  0  0  0
 16 31  1  0  0  0
 17 21  1  0  0  0
 18 19  1  0  0  0
 19 20  1  0  0  0
 22 23  2  0  0  0
 22 27  1  0  0  0
 23 24  1  0  0  0
 24 25  2  0  0  0
 25 26  1  0  0  0
 26 27  2  0  0  0
 28 29  1  0  0  0
 30 31  1  0  0  0
 11 32  1  0  0  0
 14 33  1  0  0  0
 16 34  1  0  0  0
 16 35  1  0  0  0
M  END
>  <CHROM.0>
175.19784568,67.25842010,20.12440548,-162.08130774

>  <CHROM.1>
-90.86274539,-102.75014450,29.87349364,122.26572295,-59.15281104,60.48418385
-175.07049001,-52.46621868,-176.90128269,92.20177290,65.42927395,49.01768306
22.83581830,38.49533412,-0.47190891,-0.88104021,-0.86168550

>  <Name>
XAC_3REY_CCD_neutral

>  <RI>
-1.87621e+09

>  <Rbt.Current_Directory>
/mnt/nfs/CX900004_DS117/sbdd-project/references/stage5/d021_rdock_3REY_XAC_single_shot_qualification_20260917

>  <Rbt.Executable>
rbdock - v26.09-alpha

>  <Rbt.Library>
libRbt.so (26.09, Buildalpha)

>  <Rbt.Parameter_File>
dock.prm

>  <Rbt.Receptor>
3REY_rdock.prm

>  <SCORE>
-4.3124

>  <SCORE.INTER>
-7.38178

>  <SCORE.INTER.CONST>
1

>  <SCORE.INTER.POLAR>
0

>  <SCORE.INTER.REPUL>
0

>  <SCORE.INTER.ROT>
11

>  <SCORE.INTER.VDW>
-23.7818

>  <SCORE.INTER.norm>
-0.238122

>  <SCORE.INTRA>
1.5858

>  <SCORE.INTRA.DIHEDRAL>
6.09013

>  <SCORE.INTRA.DIHEDRAL.0>
8.42133

>  <SCORE.INTRA.POLAR>
0

>  <SCORE.INTRA.POLAR.0>
0

>  <SCORE.INTRA.REPUL>
0

>  <SCORE.INTRA.REPUL.0>
0

>  <SCORE.INTRA.VDW>
-1.45927

>  <SCORE.INTRA.VDW.0>
-1.06371

>  <SCORE.INTRA.norm>
0.0511547

>  <SCORE.RESTR>
0

>  <SCORE.RESTR.CAVITY>
0

>  <SCORE.RESTR.norm>
0

>  <SCORE.SYSTEM>
1.48358

>  <SCORE.SYSTEM.CONST>
0

>  <SCORE.SYSTEM.DIHEDRAL>
1.3972

>  <SCORE.SYSTEM.VDW>
0.784984

>  <SCORE.SYSTEM.norm>
0.0478575

>  <SCORE.heavy>
31

>  <SCORE.norm>
-0.13911

$$$$
XAC_3REY_CCD_neutral
  rDOCK(R)          3D
libRbt.so/26.09/alpha
 35 37  0  0  0  0  0  0  0  0999 V2000
   47.6698   21.4868   37.4926 C   0  0  0  0  0  0
   50.2113   21.9278   36.3420 N   0  0  0  0  0  0
   46.5811   21.3126   38.0537 O   0  0  0  0  0  0
   49.1635   21.4714   35.5721 C   0  0  0  0  0  0
   47.9391   21.2354   36.1754 N   0  0  0  0  0  0
   49.3291   21.2639   34.3606 O   0  0  0  0  0  0
   50.1717   22.6624   39.8316 C   0  0  0  0  0  0
   50.9110   22.6363   38.7046 N   0  0  0  0  0  0
   52.2581   24.3262   44.8608 O   0  0  0  0  0  0
   50.0247   22.1889   37.7221 C   0  0  0  0  0  0
   48.9016   22.2727   39.5924 N   0  0  0  0  0  0
   51.5193   27.7345   44.4979 O   0  0  0  0  0  0
   48.8088   21.9733   38.2464 C   0  0  0  0  0  0
   50.3712   26.1134   45.5680 N   0  0  0  0  0  0
   46.8610   20.6164   35.3705 C   0  0  0  0  0  0
   50.1155   28.8546   46.7008 N   0  0  0  0  0  0
   46.1916   21.6480   34.4407 C   0  0  0  0  0  0
   51.5547   22.1210   35.7780 C   0  0  0  0  0  0
   51.7422   23.5420   35.2178 C   0  0  0  0  0  0
   53.1514   23.7666   34.6592 C   0  0  0  0  0  0
   45.0018   21.0703   33.6685 C   0  0  0  0  0  0
   51.6965   23.8778   43.6843 C   0  0  0  0  0  0
   50.3207   23.5899   43.5098 C   0  0  0  0  0  0
   49.8267   23.1819   42.2555 C   0  0  0  0  0  0
   50.6960   23.0411   41.1492 C   0  0  0  0  0  0
   52.0744   23.2942   41.3332 C   0  0  0  0  0  0
   52.5656   23.7083   42.5885 C   0  0  0  0  0  0
   52.6966   25.6805   44.9213 C   0  0  0  0  0  0
   51.4725   26.5999   44.9809 C   0  0  0  0  0  0
   49.1153   26.8295   45.7380 C   0  0  0  0  0  0
   49.2034   27.7577   46.9602 C   0  0  0  0  0  0
   48.1639   22.2124   40.2649 H   0  0  0  0  0  0
   50.4154   25.1787   45.9198 H   0  0  0  0  0  0
   49.7378   29.4401   45.9839 H   0  0  0  0  0  0
   50.2396   29.3899   47.5370 H   0  0  0  0  0  0
  1  3  2  0  0  0
  1  5  1  0  0  0
  1 13  1  0  0  0
  2  4  1  0  0  0
  2 10  1  0  0  0
  2 18  1  0  0  0
  4  5  1  0  0  0
  4  6  2  0  0  0
  5 15  1  0  0  0
  7  8  2  0  0  0
  7 11  1  0  0  0
  7 25  1  0  0  0
  8 10  1  0  0  0
  9 22  1  0  0  0
  9 28  1  0  0  0
 10 13  2  0  0  0
 11 13  1  0  0  0
 12 29  2  0  0  0
 14 29  1  0  0  0
 14 30  1  0  0  0
 15 17  1  0  0  0
 16 31  1  0  0  0
 17 21  1  0  0  0
 18 19  1  0  0  0
 19 20  1  0  0  0
 22 23  2  0  0  0
 22 27  1  0  0  0
 23 24  1  0  0  0
 24 25  2  0  0  0
 25 26  1  0  0  0
 26 27  2  0  0  0
 28 29  1  0  0  0
 30 31  1  0  0  0
 11 32  1  0  0  0
 14 33  1  0  0  0
 16 34  1  0  0  0
 16 35  1  0  0  0
M  END
>  <CHROM.0>
61.37969473,-177.65360460,154.92728903,15.95935450

>  <CHROM.1>
89.98414188,104.39496819,173.19534784,-108.48894929,72.50996670,-81.27509422
-175.67817503,66.27439743,178.53740261,-149.69893140,69.33495949,49.92034286
23.52573218,40.00957246,1.79050574,-0.15404252,-1.98581835

>  <Name>
XAC_3REY_CCD_neutral

>  <RI>
-1.87621e+09

>  <Rbt.Current_Directory>
/mnt/nfs/CX900004_DS117/sbdd-project/references/stage5/d021_rdock_3REY_XAC_single_shot_qualification_20260917

>  <Rbt.Executable>
rbdock - v26.09-alpha

>  <Rbt.Library>
libRbt.so (26.09, Buildalpha)

>  <Rbt.Parameter_File>
dock.prm

>  <Rbt.Receptor>
3REY_rdock.prm

>  <SCORE>
-7.53586

>  <SCORE.INTER>
-8.03737

>  <SCORE.INTER.CONST>
1

>  <SCORE.INTER.POLAR>
-1.42557

>  <SCORE.INTER.REPUL>
0

>  <SCORE.INTER.ROT>
11

>  <SCORE.INTER.VDW>
-19.5904

>  <SCORE.INTER.norm>
-0.25927

>  <SCORE.INTRA>
-0.206571

>  <SCORE.INTRA.DIHEDRAL>
4.38811

>  <SCORE.INTRA.DIHEDRAL.0>
8.42133

>  <SCORE.INTRA.POLAR>
-0.0109126

>  <SCORE.INTRA.POLAR.0>
0

>  <SCORE.INTRA.REPUL>
0

>  <SCORE.INTRA.REPUL.0>
0

>  <SCORE.INTRA.VDW>
-2.36352

>  <SCORE.INTRA.VDW.0>
-1.06371

>  <SCORE.INTRA.norm>
-0.0066636

>  <SCORE.RESTR>
0

>  <SCORE.RESTR.CAVITY>
0

>  <SCORE.RESTR.norm>
0

>  <SCORE.SYSTEM>
0.708083

>  <SCORE.SYSTEM.CONST>
0

>  <SCORE.SYSTEM.DIHEDRAL>
1.26773

>  <SCORE.SYSTEM.VDW>
0.0742169

>  <SCORE.SYSTEM.norm>
0.0228414

>  <SCORE.heavy>
31

>  <SCORE.norm>
-0.243092

$$$$
XAC_3REY_CCD_neutral
  rDOCK(R)          3D
libRbt.so/26.09/alpha
 35 37  0  0  0  0  0  0  0  0999 V2000
   48.9260   24.1823   30.2663 C   0  0  0  0  0  0
   47.2944   21.9897   30.9791 N   0  0  0  0  0  0
   49.6702   25.1371   30.0117 O   0  0  0  0  0  0
   47.1351   22.6147   29.7614 C   0  0  0  0  0  0
   47.9306   23.7072   29.4575 N   0  0  0  0  0  0
   46.2786   22.2064   28.9627 O   0  0  0  0  0  0
   49.6248   22.8201   33.5479 C   0  0  0  0  0  0
   48.6342   21.9897   33.1652 N   0  0  0  0  0  0
   52.3041   22.3904   38.5529 O   0  0  0  0  0  0
   48.2857   22.4355   31.8881 C   0  0  0  0  0  0
   49.9027   23.7257   32.5862 N   0  0  0  0  0  0
   53.1953   23.0432   41.2115 O   0  0  0  0  0  0
   49.0496   23.4778   31.5275 C   0  0  0  0  0  0
   52.3334   21.0145   41.6944 N   0  0  0  0  0  0
   47.6592   24.4549   28.2082 C   0  0  0  0  0  0
   54.3628   18.8959   41.8300 N   0  0  0  0  0  0
   46.4984   25.4526   28.3919 C   0  0  0  0  0  0
   46.4281   20.8770   31.3932 C   0  0  0  0  0  0
   47.2434   19.6386   31.8054 C   0  0  0  0  0  0
   46.3550   18.5019   32.3220 C   0  0  0  0  0  0
   45.1213   24.7903   28.2879 C   0  0  0  0  0  0
   51.6610   22.5774   37.3480 C   0  0  0  0  0  0
   51.9281   23.6411   36.4518 C   0  0  0  0  0  0
   51.2543   23.7258   35.2177 C   0  0  0  0  0  0
   50.2906   22.7569   34.8544 C   0  0  0  0  0  0
   49.9991   21.7157   35.7647 C   0  0  0  0  0  0
   50.6792   21.6299   36.9971 C   0  0  0  0  0  0
   51.5052   22.2072   39.7183 C   0  0  0  0  0  0
   52.4211   22.1203   40.9434 C   0  0  0  0  0  0
   53.1231   20.7342   42.8847 C   0  0  0  0  0  0
   54.5007   20.1841   42.4811 C   0  0  0  0  0  0
   50.5979   24.4433   32.6313 H   0  0  0  0  0  0
   51.6690   20.3224   41.4135 H   0  0  0  0  0  0
   55.2411   18.6253   41.4365 H   0  0  0  0  0  0
   54.0738   18.2123   42.5010 H   0  0  0  0  0  0
  1  3  2  0  0  0
  1  5  1  0  0  0
  1 13  1  0  0  0
  2  4  1  0  0  0
  2 10  1  0  0  0
  2 18  1  0  0  0
  4  5  1  0  0  0
  4  6  2  0  0  0
  5 15  1  0  0  0
  7  8  2  0  0  0
  7 11  1  0  0  0
  7 25  1  0  0  0
  8 10  1  0  0  0
  9 22  1  0  0  0
  9 28  1  0  0  0
 10 13  2  0  0  0
 11 13  1  0  0  0
 12 29  2  0  0  0
 14 29  1  0  0  0
 14 30  1  0  0  0
 15 17  1  0  0  0
 16 31  1  0  0  0
 17 21  1  0  0  0
 18 19  1  0  0  0
 19 20  1  0  0  0
 22 23  2  0  0  0
 22 27  1  0  0  0
 23 24  1  0  0  0
 24 25  2  0  0  0
 25 26  1  0  0  0
 26 27  2  0  0  0
 28 29  1  0  0  0
 30 31  1  0  0  0
 11 32  1  0  0  0
 14 33  1  0  0  0
 16 34  1  0  0  0
 16 35  1  0  0  0
M  END
>  <CHROM.0>
63.95033086,68.89247488,3.26240395,-171.33217988

>  <CHROM.1>
126.28759751,-95.97797567,-175.35464690,128.55249433,-175.97908392,-81.84528831
-80.75108135,170.39025637,176.43674120,57.71918689,-65.36679728,49.74189273
22.37978640,34.51067305,-2.37534896,0.89191694,2.42897178

>  <Name>
XAC_3REY_CCD_neutral

>  <RI>
-1.87621e+09

>  <Rbt.Current_Directory>
/mnt/nfs/CX900004_DS117/sbdd-project/references/stage5/d021_rdock_3REY_XAC_single_shot_qualification_20260917

>  <Rbt.Executable>
rbdock - v26.09-alpha

>  <Rbt.Library>
libRbt.so (26.09, Buildalpha)

>  <Rbt.Parameter_File>
dock.prm

>  <Rbt.Receptor>
3REY_rdock.prm

>  <SCORE>
-5.896

>  <SCORE.INTER>
-8.12804

>  <SCORE.INTER.CONST>
1

>  <SCORE.INTER.POLAR>
-0.554592

>  <SCORE.INTER.REPUL>
0

>  <SCORE.INTER.ROT>
11

>  <SCORE.INTER.VDW>
-22.6424

>  <SCORE.INTER.norm>
-0.262195

>  <SCORE.INTRA>
1.75408

>  <SCORE.INTRA.DIHEDRAL>
3.99203

>  <SCORE.INTRA.DIHEDRAL.0>
8.42133

>  <SCORE.INTRA.POLAR>
0

>  <SCORE.INTRA.POLAR.0>
0

>  <SCORE.INTRA.REPUL>
0

>  <SCORE.INTRA.REPUL.0>
0

>  <SCORE.INTRA.VDW>
-0.241934

>  <SCORE.INTRA.VDW.0>
-1.06371

>  <SCORE.INTRA.norm>
0.0565832

>  <SCORE.RESTR>
0

>  <SCORE.RESTR.CAVITY>
0

>  <SCORE.RESTR.norm>
0

>  <SCORE.SYSTEM>
0.477962

>  <SCORE.SYSTEM.CONST>
0

>  <SCORE.SYSTEM.DIHEDRAL>
0.588979

>  <SCORE.SYSTEM.VDW>
0.183472

>  <SCORE.SYSTEM.norm>
0.0154181

>  <SCORE.heavy>
31

>  <SCORE.norm>
-0.190194

$$$$
XAC_3REY_CCD_neutral
  rDOCK(R)          3D
libRbt.so/26.09/alpha
 35 37  0  0  0  0  0  0  0  0999 V2000
   52.8603   24.5063   34.5659 C   0  0  0  0  0  0
   51.3606   22.1201   34.3802 N   0  0  0  0  0  0
   53.4975   25.5570   34.7090 O   0  0  0  0  0  0
   52.0683   22.5889   33.2947 C   0  0  0  0  0  0
   52.7670   23.7793   33.4111 N   0  0  0  0  0  0
   52.0607   21.9544   32.2291 O   0  0  0  0  0  0
   51.1203   23.6087   37.6122 C   0  0  0  0  0  0
   50.7530   22.5745   36.8294 N   0  0  0  0  0  0
   49.4547   24.1341   43.0309 O   0  0  0  0  0  0
   51.3822   22.8269   35.6081 C   0  0  0  0  0  0
   51.9343   24.4581   36.9501 N   0  0  0  0  0  0
   51.9353   24.2050   43.9634 O   0  0  0  0  0  0
   52.1022   23.9571   35.6731 C   0  0  0  0  0  0
   51.8390   26.3640   44.6122 N   0  0  0  0  0  0
   53.4098   24.3440   32.2023 C   0  0  0  0  0  0
   53.7818   27.7665   42.9579 N   0  0  0  0  0  0
   52.5131   25.4044   31.5330 C   0  0  0  0  0  0
   50.5356   20.9067   34.2963 C   0  0  0  0  0  0
   49.1916   21.1747   33.5963 C   0  0  0  0  0  0
   48.3220   19.9163   33.5036 C   0  0  0  0  0  0
   51.1977   24.8247   31.0045 C   0  0  0  0  0  0
   49.8654   24.0899   41.7157 C   0  0  0  0  0  0
   50.7892   24.9911   41.1322 C   0  0  0  0  0  0
   51.1885   24.8402   39.7899 C   0  0  0  0  0  0
   50.6667   23.7931   38.9958 C   0  0  0  0  0  0
   49.7180   22.9157   39.5685 C   0  0  0  0  0  0
   49.3243   23.0653   40.9143 C   0  0  0  0  0  0
   49.7922   25.2845   43.8008 C   0  0  0  0  0  0
   51.2864   25.2403   44.1364 C   0  0  0  0  0  0
   53.2323   26.5232   45.0026 C   0  0  0  0  0  0
   53.7974   27.8227   44.4067 C   0  0  0  0  0  0
   52.3412   25.2951   37.3163 H   0  0  0  0  0  0
   51.2438   27.1615   44.7076 H   0  0  0  0  0  0
   54.2974   28.5392   42.5884 H   0  0  0  0  0  0
   54.2004   26.9105   42.6529 H   0  0  0  0  0  0
  1  3  2  0  0  0
  1  5  1  0  0  0
  1 13  1  0  0  0
  2  4  1  0  0  0
  2 10  1  0  0  0
  2 18  1  0  0  0
  4  5  1  0  0  0
  4  6  2  0  0  0
  5 15  1  0  0  0
  7  8  2  0  0  0
  7 11  1  0  0  0
  7 25  1  0  0  0
  8 10  1  0  0  0
  9 22  1  0  0  0
  9 28  1  0  0  0
 10 13  2  0  0  0
 11 13  1  0  0  0
 12 29  2  0  0  0
 14 29  1  0  0  0
 14 30  1  0  0  0
 15 17  1  0  0  0
 16 31  1  0  0  0
 17 21  1  0  0  0
 18 19  1  0  0  0
 19 20  1  0  0  0
 22 23  2  0  0  0
 22 27  1  0  0  0
 23 24  1  0  0  0
 24 25  2  0  0  0
 25 26  1  0  0  0
 26 27  2  0  0  0
 28 29  1  0  0  0
 30 31  1  0  0  0
 11 32  1  0  0  0
 14 33  1  0  0  0
 16 34  1  0  0  0
 16 35  1  0  0  0
M  END
>  <CHROM.0>
174.88839279,67.71234207,16.67036470,-155.71193543

>  <CHROM.1>
-77.99614654,-81.26688833,174.43472129,11.32283755,-73.56241286,133.35433874
-63.92554123,-169.93104951,-179.97142168,-13.18591119,-62.84669275,51.43497884
24.07683056,37.92262155,-1.59164131,0.79873344,1.33492341

>  <Name>
XAC_3REY_CCD_neutral

>  <RI>
-1.87621e+09

>  <Rbt.Current_Directory>
/mnt/nfs/CX900004_DS117/sbdd-project/references/stage5/d021_rdock_3REY_XAC_single_shot_qualification_20260917

>  <Rbt.Executable>
rbdock - v26.09-alpha

>  <Rbt.Library>
libRbt.so (26.09, Buildalpha)

>  <Rbt.Parameter_File>
dock.prm

>  <Rbt.Receptor>
3REY_rdock.prm

>  <SCORE>
-7.34045

>  <SCORE.INTER>
-8.56801

>  <SCORE.INTER.CONST>
1

>  <SCORE.INTER.POLAR>
0

>  <SCORE.INTER.REPUL>
0

>  <SCORE.INTER.ROT>
11

>  <SCORE.INTER.VDW>
-24.968

>  <SCORE.INTER.norm>
-0.276387

>  <SCORE.INTRA>
-0.296128

>  <SCORE.INTRA.DIHEDRAL>
0.59057

>  <SCORE.INTRA.DIHEDRAL.0>
8.42133

>  <SCORE.INTRA.POLAR>
0

>  <SCORE.INTRA.POLAR.0>
0

>  <SCORE.INTRA.REPUL>
0

>  <SCORE.INTRA.REPUL.0>
0

>  <SCORE.INTRA.VDW>
-0.591413

>  <SCORE.INTRA.VDW.0>
-1.06371

>  <SCORE.INTRA.norm>
-0.00955251

>  <SCORE.RESTR>
0

>  <SCORE.RESTR.CAVITY>
0

>  <SCORE.RESTR.norm>
0

>  <SCORE.SYSTEM>
1.52369

>  <SCORE.SYSTEM.CONST>
0

>  <SCORE.SYSTEM.DIHEDRAL>
1.62996

>  <SCORE.SYSTEM.VDW>
0.708706

>  <SCORE.SYSTEM.norm>
0.0491511

>  <SCORE.heavy>
31

>  <SCORE.norm>
-0.236789

$$$$
XAC_3REY_CCD_neutral
  rDOCK(R)          3D
libRbt.so/26.09/alpha
 35 37  0  0  0  0  0  0  0  0999 V2000
   51.4062   25.1687   39.8169 C   0  0  0  0  0  0
   50.0607   23.1175   41.2168 N   0  0  0  0  0  0
   51.9808   26.0365   39.1483 O   0  0  0  0  0  0
   50.6534   24.1583   41.8982 C   0  0  0  0  0  0
   51.3325   25.1302   41.1821 N   0  0  0  0  0  0
   50.5868   24.2063   43.1358 O   0  0  0  0  0  0
   49.9987   22.5990   37.6888 C   0  0  0  0  0  0
   49.6123   22.1316   38.8928 N   0  0  0  0  0  0
   48.7341   20.0279   32.7691 O   0  0  0  0  0  0
   50.1127   23.0667   39.8017 C   0  0  0  0  0  0
   50.6862   23.7543   37.8105 N   0  0  0  0  0  0
   47.0369   17.7637   31.8975 O   0  0  0  0  0  0
   50.7562   24.0525   39.1582 C   0  0  0  0  0  0
   45.8070   18.6240   33.5823 N   0  0  0  0  0  0
   52.0808   26.1669   41.9296 C   0  0  0  0  0  0
   42.8510   16.3912   33.7301 N   0  0  0  0  0  0
   53.3976   25.6057   42.5020 C   0  0  0  0  0  0
   49.3949   22.0140   41.9233 C   0  0  0  0  0  0
   50.3571   21.2774   42.8719 C   0  0  0  0  0  0
   49.6519   20.1864   43.6849 C   0  0  0  0  0  0
   54.1644   26.6285   43.3456 C   0  0  0  0  0  0
   49.1170   20.6642   33.9305 C   0  0  0  0  0  0
   50.0358   21.7404   33.9911 C   0  0  0  0  0  0
   50.3317   22.3628   35.2196 C   0  0  0  0  0  0
   49.7259   21.9183   36.4174 C   0  0  0  0  0  0
   48.8363   20.8214   36.3611 C   0  0  0  0  0  0
   48.5372   20.2038   35.1292 C   0  0  0  0  0  0
   47.3630   20.0956   32.3879 C   0  0  0  0  0  0
   46.7160   18.7237   32.6034 C   0  0  0  0  0  0
   45.0716   17.4185   33.9358 C   0  0  0  0  0  0
   43.7599   17.3526   33.1369 C   0  0  0  0  0  0
   51.0731   24.2949   37.0633 H   0  0  0  0  0  0
   45.6172   19.4479   34.1158 H   0  0  0  0  0  0
   42.2846   16.8469   34.4163 H   0  0  0  0  0  0
   42.2646   16.0035   33.0182 H   0  0  0  0  0  0
  1  3  2  0  0  0
  1  5  1  0  0  0
  1 13  1  0  0  0
  2  4  1  0  0  0
  2 10  1  0  0  0
  2 18  1  0  0  0
  4  5  1  0  0  0
  4  6  2  0  0  0
  5 15  1  0  0  0
  7  8  2  0  0  0
  7 11  1  0  0  0
  7 25  1  0  0  0
  8 10  1  0  0  0
  9 22  1  0  0  0
  9 28  1  0  0  0
 10 13  2  0  0  0
 11 13  1  0  0  0
 12 29  2  0  0  0
 14 29  1  0  0  0
 14 30  1  0  0  0
 15 17  1  0  0  0
 16 31  1  0  0  0
 17 21  1  0  0  0
 18 19  1  0  0  0
 19 20  1  0  0  0
 22 23  2  0  0  0
 22 27  1  0  0  0
 23 24  1  0  0  0
 24 25  2  0  0  0
 25 26  1  0  0  0
 26 27  2  0  0  0
 28 29  1  0  0  0
 30 31  1  0  0  0
 11 32  1  0  0  0
 14 33  1  0  0  0
 16 34  1  0  0  0
 16 35  1  0  0  0
M  END
>  <CHROM.0>
173.14870447,-61.91186772,-156.22662783,-154.92791927

>  <CHROM.1>
-58.96571895,-101.73276996,-170.49269691,-117.24410057,-108.06067034,-90.32677954
-176.93174780,89.36595509,176.09780323,-68.46012333,-163.84053220,49.32051913
21.88153015,37.78460174,-0.82082245,-0.82746947,-1.58528721

>  <Name>
XAC_3REY_CCD_neutral

>  <RI>
-1.87621e+09

>  <Rbt.Current_Directory>
/mnt/nfs/CX900004_DS117/sbdd-project/references/stage5/d021_rdock_3REY_XAC_single_shot_qualification_20260917

>  <Rbt.Executable>
rbdock - v26.09-alpha

>  <Rbt.Library>
libRbt.so (26.09, Buildalpha)

>  <Rbt.Parameter_File>
dock.prm

>  <Rbt.Receptor>
3REY_rdock.prm

>  <SCORE>
-9.5454

>  <SCORE.INTER>
-15.2213

>  <SCORE.INTER.CONST>
1

>  <SCORE.INTER.POLAR>
-1.06192

>  <SCORE.INTER.REPUL>
0

>  <SCORE.INTER.ROT>
11

>  <SCORE.INTER.VDW>
-28.0108

>  <SCORE.INTER.norm>
-0.491009

>  <SCORE.INTRA>
4.54478

>  <SCORE.INTRA.DIHEDRAL>
11.8638

>  <SCORE.INTRA.DIHEDRAL.0>
8.42133

>  <SCORE.INTRA.POLAR>
0

>  <SCORE.INTRA.POLAR.0>
0

>  <SCORE.INTRA.REPUL>
0

>  <SCORE.INTRA.REPUL.0>
0

>  <SCORE.INTRA.VDW>
-1.38712

>  <SCORE.INTRA.VDW.0>
-1.06371

>  <SCORE.INTRA.norm>
0.146606

>  <SCORE.RESTR>
0

>  <SCORE.RESTR.CAVITY>
0

>  <SCORE.RESTR.norm>
0

>  <SCORE.SYSTEM>
1.13111

>  <SCORE.SYSTEM.CONST>
0

>  <SCORE.SYSTEM.DIHEDRAL>
1.89399

>  <SCORE.SYSTEM.VDW>
0.184118

>  <SCORE.SYSTEM.norm>
0.0364875

>  <SCORE.heavy>
31

>  <SCORE.norm>
-0.307916

$$$$
XAC_3REY_CCD_neutral
  rDOCK(R)          3D
libRbt.so/26.09/alpha
 35 37  0  0  0  0  0  0  0  0999 V2000
   47.1503   21.1602   35.6241 C   0  0  0  0  0  0
   49.5037   21.5650   34.1157 N   0  0  0  0  0  0
   46.1500   21.0089   36.3360 O   0  0  0  0  0  0
   48.3928   20.9885   33.5392 C   0  0  0  0  0  0
   47.2663   20.7754   34.3167 N   0  0  0  0  0  0
   48.4169   20.6551   32.3449 O   0  0  0  0  0  0
   49.8608   22.6775   37.4853 C   0  0  0  0  0  0
   50.4548   22.5547   36.2813 N   0  0  0  0  0  0
   52.4446   24.9685   42.0117 O   0  0  0  0  0  0
   49.4771   21.9695   35.4734 C   0  0  0  0  0  0
   48.5921   22.2174   37.4538 N   0  0  0  0  0  0
   51.9511   22.2013   44.0302 O   0  0  0  0  0  0
   48.3481   21.7683   36.1697 C   0  0  0  0  0  0
   53.7815   22.6894   42.8043 N   0  0  0  0  0  0
   46.1292   20.0323   33.7267 C   0  0  0  0  0  0
   54.3914   19.2277   41.5650 N   0  0  0  0  0  0
   46.5387   18.5991   33.3331 C   0  0  0  0  0  0
   50.7552   21.7443   33.3662 C   0  0  0  0  0  0
   50.9384   23.1981   32.8959 C   0  0  0  0  0  0
   52.2129   23.3855   32.0659 C   0  0  0  0  0  0
   45.3744   17.7810   32.7669 C   0  0  0  0  0  0
   51.7777   24.3634   40.9679 C   0  0  0  0  0  0
   50.4536   23.8662   41.0416 C   0  0  0  0  0  0
   49.8337   23.3054   39.9078 C   0  0  0  0  0  0
   50.5249   23.2180   38.6774 C   0  0  0  0  0  0
   51.8585   23.6819   38.6141 C   0  0  0  0  0  0
   52.4748   24.2482   39.7490 C   0  0  0  0  0  0
   52.2012   24.4889   43.3311 C   0  0  0  0  0  0
   52.6391   23.0234   43.4188 C   0  0  0  0  0  0
   54.3742   21.3600   42.7823 C   0  0  0  0  0  0
   53.8364   20.5672   41.5801 C   0  0  0  0  0  0
   47.9476   22.2043   38.2184 H   0  0  0  0  0  0
   54.2691   23.4151   42.3194 H   0  0  0  0  0  0
   54.0619   18.7211   42.3614 H   0  0  0  0  0  0
   54.1053   18.7576   40.7294 H   0  0  0  0  0  0
  1  3  2  0  0  0
  1  5  1  0  0  0
  1 13  1  0  0  0
  2  4  1  0  0  0
  2 10  1  0  0  0
  2 18  1  0  0  0
  4  5  1  0  0  0
  4  6  2  0  0  0
  5 15  1  0  0  0
  7  8  2  0  0  0
  7 11  1  0  0  0
  7 25  1  0  0  0
  8 10  1  0  0  0
  9 22  1  0  0  0
  9 28  1  0  0  0
 10 13  2  0  0  0
 11 13  1  0  0  0
 12 29  2  0  0  0
 14 29  1  0  0  0
 14 30  1  0  0  0
 15 17  1  0  0  0
 16 31  1  0  0  0
 17 21  1  0  0  0
 18 19  1  0  0  0
 19 20  1  0  0  0
 22 23  2  0  0  0
 22 27  1  0  0  0
 23 24  1  0  0  0
 24 25  2  0  0  0
 25 26  1  0  0  0
 26 27  2  0  0  0
 28 29  1  0  0  0
 30 31  1  0  0  0
 11 32  1  0  0  0
 14 33  1  0  0  0
 16 34  1  0  0  0
 16 35  1  0  0  0
M  END
>  <CHROM.0>
63.50811337,-177.02009799,-171.97116470,12.33866748

>  <CHROM.1>
102.28606164,-115.88738525,-179.57274649,35.31949015,61.98194376,89.32176490
177.84532392,65.69895033,-177.74131598,-138.77241295,-178.49386973,50.27682843
21.99641121,37.67424644,2.19935725,-0.60663105,-1.42490724

>  <Name>
XAC_3REY_CCD_neutral

>  <RI>
-1.87621e+09

>  <Rbt.Current_Directory>
/mnt/nfs/CX900004_DS117/sbdd-project/references/stage5/d021_rdock_3REY_XAC_single_shot_qualification_20260917

>  <Rbt.Executable>
rbdock - v26.09-alpha

>  <Rbt.Library>
libRbt.so (26.09, Buildalpha)

>  <Rbt.Parameter_File>
dock.prm

>  <Rbt.Receptor>
3REY_rdock.prm

>  <SCORE>
-5.39714

>  <SCORE.INTER>
-4.59789

>  <SCORE.INTER.CONST>
1

>  <SCORE.INTER.POLAR>
-0.592234

>  <SCORE.INTER.REPUL>
0.010527

>  <SCORE.INTER.ROT>
11

>  <SCORE.INTER.VDW>
-19.0369

>  <SCORE.INTER.norm>
-0.148319

>  <SCORE.INTRA>
-1.27533

>  <SCORE.INTRA.DIHEDRAL>
0.561118

>  <SCORE.INTRA.DIHEDRAL.0>
8.42133

>  <SCORE.INTRA.POLAR>
0

>  <SCORE.INTRA.POLAR.0>
0

>  <SCORE.INTRA.REPUL>
0

>  <SCORE.INTRA.REPUL.0>
0

>  <SCORE.INTRA.VDW>
-1.55589

>  <SCORE.INTRA.VDW.0>
-1.06371

>  <SCORE.INTRA.norm>
-0.0411398

>  <SCORE.RESTR>
0

>  <SCORE.RESTR.CAVITY>
0

>  <SCORE.RESTR.norm>
0

>  <SCORE.SYSTEM>
0.476086

>  <SCORE.SYSTEM.CONST>
0

>  <SCORE.SYSTEM.DIHEDRAL>
0.421719

>  <SCORE.SYSTEM.VDW>
0.265226

>  <SCORE.SYSTEM.norm>
0.0153576

>  <SCORE.heavy>
31

>  <SCORE.norm>
-0.174101

$$$$
XAC_3REY_CCD_neutral
  rDOCK(R)          3D
libRbt.so/26.09/alpha
 35 37  0  0  0  0  0  0  0  0999 V2000
   50.2727   26.2996   44.9813 C   0  0  0  0  0  0
   52.6861   27.1831   43.8099 N   0  0  0  0  0  0
   49.2035   25.8790   45.4401 O   0  0  0  0  0  0
   52.3317   27.5921   45.0772 C   0  0  0  0  0  0
   51.1258   27.1653   45.6086 N   0  0  0  0  0  0
   53.0818   28.3436   45.7181 O   0  0  0  0  0  0
   50.8480   25.0326   41.6382 C   0  0  0  0  0  0
   51.9687   25.7646   41.7981 N   0  0  0  0  0  0
   49.3829   22.2974   36.8648 O   0  0  0  0  0  0
   51.8458   26.3066   43.0796 C   0  0  0  0  0  0
   50.0666   25.0883   42.7375 N   0  0  0  0  0  0
   49.7265   19.5777   34.8850 O   0  0  0  0  0  0
   50.7052   25.8992   43.6566 C   0  0  0  0  0  0
   47.8414   20.8161   34.9496 N   0  0  0  0  0  0
   50.6911   27.7186   46.9117 C   0  0  0  0  0  0
   47.5191   20.9758   31.2399 N   0  0  0  0  0  0
   50.7602   26.6543   48.0248 C   0  0  0  0  0  0
   53.9130   27.6648   43.1597 C   0  0  0  0  0  0
   55.0036   26.5798   43.1183 C   0  0  0  0  0  0
   55.4740   26.1730   44.5189 C   0  0  0  0  0  0
   50.1726   27.1417   49.3525 C   0  0  0  0  0  0
   49.8176   22.9484   37.9996 C   0  0  0  0  0  0
   50.9932   23.7348   38.0736 C   0  0  0  0  0  0
   51.3345   24.4044   39.2649 C   0  0  0  0  0  0
   50.5163   24.2957   40.4130 C   0  0  0  0  0  0
   49.3624   23.4821   40.3488 C   0  0  0  0  0  0
   49.0197   22.8174   39.1532 C   0  0  0  0  0  0
   49.3558   20.8730   36.8774 C   0  0  0  0  0  0
   48.9873   20.3677   35.4788 C   0  0  0  0  0  0
   47.3228   20.4692   33.6344 C   0  0  0  0  0  0
   48.0479   21.2873   32.5536 C   0  0  0  0  0  0
   49.1881   24.6275   42.8637 H   0  0  0  0  0  0
   47.2954   21.4428   35.5052 H   0  0  0  0  0  0
   47.5840   19.9913   31.0790 H   0  0  0  0  0  0
   46.5608   21.2590   31.1906 H   0  0  0  0  0  0
  1  3  2  0  0  0
  1  5  1  0  0  0
  1 13  1  0  0  0
  2  4  1  0  0  0
  2 10  1  0  0  0
  2 18  1  0  0  0
  4  5  1  0  0  0
  4  6  2  0  0  0
  5 15  1  0  0  0
  7  8  2  0  0  0
  7 11  1  0  0  0
  7 25  1  0  0  0
  8 10  1  0  0  0
  9 22  1  0  0  0
  9 28  1  0  0  0
 10 13  2  0  0  0
 11 13  1  0  0  0
 12 29  2  0  0  0
 14 29  1  0  0  0
 14 30  1  0  0  0
 15 17  1  0  0  0
 16 31  1  0  0  0
 17 21  1  0  0  0
 18 19  1  0  0  0
 19 20  1  0  0  0
 22 23  2  0  0  0
 22 27  1  0  0  0
 23 24  1  0  0  0
 24 25  2  0  0  0
 25 26  1  0  0  0
 26 27  2  0  0  0
 28 29  1  0  0  0
 30 31  1  0  0  0
 11 32  1  0  0  0
 14 33  1  0  0  0
 16 34  1  0  0  0
 16 35  1  0  0  0
M  END
>  <CHROM.0>
-54.57294034,-62.14348300,6.26076043,0.74496846

>  <CHROM.1>
106.23846464,72.85237524,-5.04346275,114.69038612,-174.03071566,-79.01665433
-173.61563137,-55.70954657,-63.97886961,124.28358816,-178.62065546,50.60522894
24.51539378,40.94401715,1.29659985,0.35485617,1.17631143

>  <Name>
XAC_3REY_CCD_neutral

>  <RI>
-1.87621e+09

>  <Rbt.Current_Directory>
/mnt/nfs/CX900004_DS117/sbdd-project/references/stage5/d021_rdock_3REY_XAC_single_shot_qualification_20260917

>  <Rbt.Executable>
rbdock - v26.09-alpha

>  <Rbt.Library>
libRbt.so (26.09, Buildalpha)

>  <Rbt.Parameter_File>
dock.prm

>  <Rbt.Receptor>
3REY_rdock.prm

>  <SCORE>
-6.31651

>  <SCORE.INTER>
-7.51372

>  <SCORE.INTER.CONST>
1

>  <SCORE.INTER.POLAR>
0

>  <SCORE.INTER.REPUL>
0

>  <SCORE.INTER.ROT>
11

>  <SCORE.INTER.VDW>
-23.9137

>  <SCORE.INTER.norm>
-0.242378

>  <SCORE.INTRA>
0.537892

>  <SCORE.INTRA.DIHEDRAL>
3.24858

>  <SCORE.INTRA.DIHEDRAL.0>
8.42133

>  <SCORE.INTRA.POLAR>
0

>  <SCORE.INTRA.POLAR.0>
0

>  <SCORE.INTRA.REPUL>
0

>  <SCORE.INTRA.REPUL.0>
0

>  <SCORE.INTRA.VDW>
-1.0864

>  <SCORE.INTRA.VDW.0>
-1.06371

>  <SCORE.INTRA.norm>
0.0173514

>  <SCORE.RESTR>
0

>  <SCORE.RESTR.CAVITY>
0

>  <SCORE.RESTR.norm>
0

>  <SCORE.SYSTEM>
0.659325

>  <SCORE.SYSTEM.CONST>
0

>  <SCORE.SYSTEM.DIHEDRAL>
0.228381

>  <SCORE.SYSTEM.VDW>
0.545134

>  <SCORE.SYSTEM.norm>
0.0212685

>  <SCORE.heavy>
31

>  <SCORE.norm>
-0.203758

$$$$
XAC_3REY_CCD_neutral
  rDOCK(R)          3D
libRbt.so/26.09/alpha
 35 37  0  0  0  0  0  0  0  0999 V2000
   49.8073   26.1182   46.7344 C   0  0  0  0  0  0
   51.7456   27.8158   45.5774 N   0  0  0  0  0  0
   48.9569   25.3413   47.1854 O   0  0  0  0  0  0
   51.3089   28.0281   46.8670 C   0  0  0  0  0  0
   50.3339   27.1958   47.3919 N   0  0  0  0  0  0
   51.7775   28.9628   47.5340 O   0  0  0  0  0  0
   50.6853   25.2596   43.3278 C   0  0  0  0  0  0
   51.4958   26.3215   43.5089 N   0  0  0  0  0  0
   50.1026   22.3888   38.4460 O   0  0  0  0  0  0
   51.2320   26.7366   44.8162 C   0  0  0  0  0  0
   49.9619   25.0017   44.4379 N   0  0  0  0  0  0
   47.7034   20.6461   36.4729 O   0  0  0  0  0  0
   50.3132   25.9430   45.3869 C   0  0  0  0  0  0
   49.9596   20.6713   36.4830 N   0  0  0  0  0  0
   49.7736   27.5149   48.7252 C   0  0  0  0  0  0
   50.1970   21.4553   33.6756 N   0  0  0  0  0  0
   50.6284   26.9054   49.8540 C   0  0  0  0  0  0
   52.7185   28.7116   44.9362 C   0  0  0  0  0  0
   54.0035   27.9674   44.5324 C   0  0  0  0  0  0
   54.7349   27.3708   45.7398 C   0  0  0  0  0  0
   50.6221   25.3739   49.8455 C   0  0  0  0  0  0
   50.3224   23.1005   39.6060 C   0  0  0  0  0  0
   51.1738   24.2279   39.7072 C   0  0  0  0  0  0
   51.3006   24.9240   40.9252 C   0  0  0  0  0  0
   50.5891   24.5045   42.0729 C   0  0  0  0  0  0
   49.7673   23.3583   41.9801 C   0  0  0  0  0  0
   49.6375   22.6666   40.7581 C   0  0  0  0  0  0
   48.7579   22.0705   38.0990 C   0  0  0  0  0  0
   48.7648   21.0627   36.9450 C   0  0  0  0  0  0
   50.1803   19.7151   35.4078 C   0  0  0  0  0  0
   49.5453   20.2342   34.1075 C   0  0  0  0  0  0
   49.2951   24.2652   44.5526 H   0  0  0  0  0  0
   50.7693   21.0697   36.9133 H   0  0  0  0  0  0
   51.1325   21.2506   33.3885 H   0  0  0  0  0  0
   49.6915   21.8493   32.9073 H   0  0  0  0  0  0
  1  3  2  0  0  0
  1  5  1  0  0  0
  1 13  1  0  0  0
  2  4  1  0  0  0
  2 10  1  0  0  0
  2 18  1  0  0  0
  4  5  1  0  0  0
  4  6  2  0  0  0
  5 15  1  0  0  0
  7  8  2  0  0  0
  7 11  1  0  0  0
  7 25  1  0  0  0
  8 10  1  0  0  0
  9 22  1  0  0  0
  9 28  1  0  0  0
 10 13  2  0  0  0
 11 13  1  0  0  0
 12 29  2  0  0  0
 14 29  1  0  0  0
 14 30  1  0  0  0
 15 17  1  0  0  0
 16 31  1  0  0  0
 17 21  1  0  0  0
 18 19  1  0  0  0
 19 20  1  0  0  0
 22 23  2  0  0  0
 22 27  1  0  0  0
 23 24  1  0  0  0
 24 25  2  0  0  0
 25 26  1  0  0  0
 26 27  2  0  0  0
 28 29  1  0  0  0
 30 31  1  0  0  0
 11 32  1  0  0  0
 14 33  1  0  0  0
 16 34  1  0  0  0
 16 35  1  0  0  0
M  END
>  <CHROM.0>
64.61519390,-178.42767880,8.28783967,-0.26066860

>  <CHROM.1>
119.52455686,96.07110927,-4.41466793,-133.00515717,-169.15176882,60.77285886
-65.15049680,68.06855764,-61.72652313,-179.68230090,64.12149026,50.58169083
24.73244707,42.57704369,1.39993757,0.69434053,1.17911166

>  <Name>
XAC_3REY_CCD_neutral

>  <RI>
-1.87621e+09

>  <Rbt.Current_Directory>
/mnt/nfs/CX900004_DS117/sbdd-project/references/stage5/d021_rdock_3REY_XAC_single_shot_qualification_20260917

>  <Rbt.Executable>
rbdock - v26.09-alpha

>  <Rbt.Library>
libRbt.so (26.09, Buildalpha)

>  <Rbt.Parameter_File>
dock.prm

>  <Rbt.Receptor>
3REY_rdock.prm

>  <SCORE>
-8.02641

>  <SCORE.INTER>
-8.65927

>  <SCORE.INTER.CONST>
1

>  <SCORE.INTER.POLAR>
-0.912481

>  <SCORE.INTER.REPUL>
0

>  <SCORE.INTER.ROT>
11

>  <SCORE.INTER.VDW>
-21.9568

>  <SCORE.INTER.norm>
-0.279331

>  <SCORE.INTRA>
0.409436

>  <SCORE.INTRA.DIHEDRAL>
2.22531

>  <SCORE.INTRA.DIHEDRAL.0>
8.42133

>  <SCORE.INTRA.POLAR>
-0.152972

>  <SCORE.INTRA.POLAR.0>
0

>  <SCORE.INTRA.REPUL>
0

>  <SCORE.INTRA.REPUL.0>
0

>  <SCORE.INTRA.VDW>
-0.183115

>  <SCORE.INTRA.VDW.0>
-1.06371

>  <SCORE.INTRA.norm>
0.0132076

>  <SCORE.RESTR>
0

>  <SCORE.RESTR.CAVITY>
0

>  <SCORE.RESTR.norm>
0

>  <SCORE.SYSTEM>
0.223427

>  <SCORE.SYSTEM.CONST>
0

>  <SCORE.SYSTEM.DIHEDRAL>
0.219946

>  <SCORE.SYSTEM.VDW>
0.113454

>  <SCORE.SYSTEM.norm>
0.00720733

>  <SCORE.heavy>
31

>  <SCORE.norm>
-0.258917

$$$$
XAC_3REY_CCD_neutral
  rDOCK(R)          3D
libRbt.so/26.09/alpha
 35 37  0  0  0  0  0  0  0  0999 V2000
   50.1155   24.6811   44.7955 C   0  0  0  0  0  0
   49.4559   21.9658   44.3836 N   0  0  0  0  0  0
   50.4120   25.8765   44.9116 O   0  0  0  0  0  0
   49.4800   22.4956   45.6554 C   0  0  0  0  0  0
   49.8389   23.8229   45.8239 N   0  0  0  0  0  0
   49.1974   21.7818   46.6295 O   0  0  0  0  0  0
   50.1800   23.6504   41.3247 C   0  0  0  0  0  0
   49.8117   22.4875   41.8986 N   0  0  0  0  0  0
   51.2636   24.3239   35.7762 O   0  0  0  0  0  0
   49.7554   22.7800   43.2633 C   0  0  0  0  0  0
   50.3380   24.6227   42.2477 N   0  0  0  0  0  0
   50.6703   24.5249   33.0632 O   0  0  0  0  0  0
   50.0647   24.0668   43.4831 C   0  0  0  0  0  0
   52.3680   23.0891   32.6787 N   0  0  0  0  0  0
   49.9950   24.3446   47.2012 C   0  0  0  0  0  0
   53.3769   25.1012   29.7087 N   0  0  0  0  0  0
   51.3533   23.9367   47.8055 C   0  0  0  0  0  0
   49.1613   20.5456   44.1460 C   0  0  0  0  0  0
   50.4125   19.6652   44.3119 C   0  0  0  0  0  0
   51.5401   20.0696   43.3561 C   0  0  0  0  0  0
   51.5263   24.4058   49.2531 C   0  0  0  0  0  0
   50.9371   24.1118   37.0986 C   0  0  0  0  0  0
   50.3870   22.9098   37.6071 C   0  0  0  0  0  0
   50.1292   22.7650   38.9843 C   0  0  0  0  0  0
   50.4042   23.8205   39.8842 C   0  0  0  0  0  0
   50.9199   25.0323   39.3710 C   0  0  0  0  0  0
   51.1826   25.1727   37.9926 C   0  0  0  0  0  0
   51.3935   23.1875   34.9268 C   0  0  0  0  0  0
   51.4475   23.6565   33.4693 C   0  0  0  0  0  0
   52.5706   23.3841   31.2677 C   0  0  0  0  0  0
   53.2331   24.7625   31.1112 C   0  0  0  0  0  0
   50.6033   25.5705   42.0701 H   0  0  0  0  0  0
   52.9671   22.4043   33.0928 H   0  0  0  0  0  0
   53.8833   24.3773   29.2408 H   0  0  0  0  0  0
   52.4713   25.1956   29.2940 H   0  0  0  0  0  0
  1  3  2  0  0  0
  1  5  1  0  0  0
  1 13  1  0  0  0
  2  4  1  0  0  0
  2 10  1  0  0  0
  2 18  1  0  0  0
  4  5  1  0  0  0
  4  6  2  0  0  0
  5 15  1  0  0  0
  7  8  2  0  0  0
  7 11  1  0  0  0
  7 25  1  0  0  0
  8 10  1  0  0  0
  9 22  1  0  0  0
  9 28  1  0  0  0
 10 13  2  0  0  0
 11 13  1  0  0  0
 12 29  2  0  0  0
 14 29  1  0  0  0
 14 30  1  0  0  0
 15 17  1  0  0  0
 16 31  1  0  0  0
 17 21  1  0  0  0
 18 19  1  0  0  0
 19 20  1  0  0  0
 22 23  2  0  0  0
 22 27  1  0  0  0
 23 24  1  0  0  0
 24 25  2  0  0  0
 25 26  1  0  0  0
 26 27  2  0  0  0
 28 29  1  0  0  0
 30 31  1  0  0  0
 11 32  1  0  0  0
 14 33  1  0  0  0
 16 34  1  0  0  0
 16 35  1  0  0  0
M  END
>  <CHROM.0>
60.29435016,-61.61626252,-177.15553515,-167.72632189

>  <CHROM.1>
-83.53687781,-98.06539134,5.39953755,-17.15490134,167.58243769,73.15499816
-177.46079861,-55.47879013,-58.91611139,-43.87691951,-176.98068227,50.77038385
23.45580995,40.38133144,-2.32024280,-1.36423272,-2.23380832

>  <Name>
XAC_3REY_CCD_neutral

>  <RI>
-1.87621e+09

>  <Rbt.Current_Directory>
/mnt/nfs/CX900004_DS117/sbdd-project/references/stage5/d021_rdock_3REY_XAC_single_shot_qualification_20260917

>  <Rbt.Executable>
rbdock - v26.09-alpha

>  <Rbt.Library>
libRbt.so (26.09, Buildalpha)

>  <Rbt.Parameter_File>
dock.prm

>  <Rbt.Receptor>
3REY_rdock.prm

>  <SCORE>
-12.3238

>  <SCORE.INTER>
-12.2723

>  <SCORE.INTER.CONST>
1

>  <SCORE.INTER.POLAR>
-1.06066

>  <SCORE.INTER.REPUL>
0

>  <SCORE.INTER.ROT>
11

>  <SCORE.INTER.VDW>
-25.0661

>  <SCORE.INTER.norm>
-0.395882

>  <SCORE.INTRA>
-0.103187

>  <SCORE.INTRA.DIHEDRAL>
0.540381

>  <SCORE.INTRA.DIHEDRAL.0>
8.42133

>  <SCORE.INTRA.POLAR>
0

>  <SCORE.INTRA.POLAR.0>
0

>  <SCORE.INTRA.REPUL>
0

>  <SCORE.INTRA.REPUL.0>
0

>  <SCORE.INTRA.VDW>
-0.373378

>  <SCORE.INTRA.VDW.0>
-1.06371

>  <SCORE.INTRA.norm>
-0.00332861

>  <SCORE.RESTR>
0

>  <SCORE.RESTR.CAVITY>
0

>  <SCORE.RESTR.norm>
0

>  <SCORE.SYSTEM>
0.0516811

>  <SCORE.SYSTEM.CONST>
0

>  <SCORE.SYSTEM.DIHEDRAL>
0.246942

>  <SCORE.SYSTEM.VDW>
-0.0717897

>  <SCORE.SYSTEM.norm>
0.00166713

>  <SCORE.heavy>
31

>  <SCORE.norm>
-0.397543

$$$$
XAC_3REY_CCD_neutral
  rDOCK(R)          3D
libRbt.so/26.09/alpha
 35 37  0  0  0  0  0  0  0  0999 V2000
   47.3792   21.2816   36.9033 C   0  0  0  0  0  0
   50.0804   21.0424   36.1139 N   0  0  0  0  0  0
   46.2159   21.4209   37.3006 O   0  0  0  0  0  0
   49.0781   20.4648   35.3651 C   0  0  0  0  0  0
   47.7671   20.5745   35.7987 N   0  0  0  0  0  0
   49.3581   19.8452   34.3279 O   0  0  0  0  0  0
   49.7239   22.9100   39.1312 C   0  0  0  0  0  0
   50.5837   22.4290   38.2111 N   0  0  0  0  0  0
   51.3171   25.6075   43.8850 O   0  0  0  0  0  0
   49.7674   21.7713   37.2880 C   0  0  0  0  0  0
   48.4484   22.5968   38.8194 N   0  0  0  0  0  0
   48.7209   26.3822   44.3894 O   0  0  0  0  0  0
   48.4775   21.8726   37.6427 C   0  0  0  0  0  0
   49.1664   26.3379   46.6010 N   0  0  0  0  0  0
   46.7144   19.8361   35.0639 C   0  0  0  0  0  0
   49.4806   29.1528   47.0661 N   0  0  0  0  0  0
   45.9401   20.7652   34.1080 C   0  0  0  0  0  0
   51.4968   20.8936   35.7506 C   0  0  0  0  0  0
   51.9992   19.4571   35.9792 C   0  0  0  0  0  0
   53.4880   19.3017   35.6510 C   0  0  0  0  0  0
   46.8252   21.3610   33.0092 C   0  0  0  0  0  0
   50.9747   25.0108   42.6904 C   0  0  0  0  0  0
   51.8090   24.9666   41.5466 C   0  0  0  0  0  0
   51.3946   24.2913   40.3820 C   0  0  0  0  0  0
   50.1336   23.6539   40.3283 C   0  0  0  0  0  0
   49.2870   23.7288   41.4577 C   0  0  0  0  0  0
   49.7066   24.4005   42.6245 C   0  0  0  0  0  0
   50.6722   25.1525   45.0712 C   0  0  0  0  0  0
   49.4326   26.0154   45.3284 C   0  0  0  0  0  0
   48.0504   27.1569   47.0515 C   0  0  0  0  0  0
   48.5734   28.3520   47.8649 C   0  0  0  0  0  0
   47.6329   22.8436   39.3431 H   0  0  0  0  0  0
   49.7870   25.9864   47.3014 H   0  0  0  0  0  0
   50.2619   28.5944   46.7881 H   0  0  0  0  0  0
   49.0030   29.4859   46.2525 H   0  0  0  0  0  0
  1  3  2  0  0  0
  1  5  1  0  0  0
  1 13  1  0  0  0
  2  4  1  0  0  0
  2 10  1  0  0  0
  2 18  1  0  0  0
  4  5  1  0  0  0
  4  6  2  0  0  0
  5 15  1  0  0  0
  7  8  2  0  0  0
  7 11  1  0  0  0
  7 25  1  0  0  0
  8 10  1  0  0  0
  9 22  1  0  0  0
  9 28  1  0  0  0
 10 13  2  0  0  0
 11 13  1  0  0  0
 12 29  2  0  0  0
 14 29  1  0  0  0
 14 30  1  0  0  0
 15 17  1  0  0  0
 16 31  1  0  0  0
 17 21  1  0  0  0
 18 19  1  0  0  0
 19 20  1  0  0  0
 22 23  2  0  0  0
 22 27  1  0  0  0
 23 24  1  0  0  0
 24 25  2  0  0  0
 25 26  1  0  0  0
 26 27  2  0  0  0
 28 29  1  0  0  0
 30 31  1  0  0  0
 11 32  1  0  0  0
 14 33  1  0  0  0
 16 34  1  0  0  0
 16 35  1  0  0  0
M  END
>  <CHROM.0>
66.27572134,-64.74085432,-34.47032047,-5.60478225

>  <CHROM.1>
-70.15721033,81.69514789,20.96576186,-155.63731331,-92.39143562,-123.69277594
62.92905344,-60.66530647,-177.96202783,39.11285815,58.60492104,49.40426405
23.18498448,39.79266175,1.62410874,0.14358430,-2.11950534

>  <Name>
XAC_3REY_CCD_neutral

>  <RI>
-1.87621e+09

>  <Rbt.Current_Directory>
/mnt/nfs/CX900004_DS117/sbdd-project/references/stage5/d021_rdock_3REY_XAC_single_shot_qualification_20260917

>  <Rbt.Executable>
rbdock - v26.09-alpha

>  <Rbt.Library>
libRbt.so (26.09, Buildalpha)

>  <Rbt.Parameter_File>
dock.prm

>  <Rbt.Receptor>
3REY_rdock.prm

>  <SCORE>
-11.6908

>  <SCORE.INTER>
-15.4537

>  <SCORE.INTER.CONST>
1

>  <SCORE.INTER.POLAR>
-1.42088

>  <SCORE.INTER.REPUL>
0.0814864

>  <SCORE.INTER.ROT>
11

>  <SCORE.INTER.VDW>
-27.4302

>  <SCORE.INTER.norm>
-0.498508

>  <SCORE.INTRA>
3.52723

>  <SCORE.INTRA.DIHEDRAL>
5.36017

>  <SCORE.INTRA.DIHEDRAL.0>
8.42133

>  <SCORE.INTRA.POLAR>
0

>  <SCORE.INTRA.POLAR.0>
0

>  <SCORE.INTRA.REPUL>
0

>  <SCORE.INTRA.REPUL.0>
0

>  <SCORE.INTRA.VDW>
0.84714

>  <SCORE.INTRA.VDW.0>
-1.06371

>  <SCORE.INTRA.norm>
0.113781

>  <SCORE.RESTR>
0

>  <SCORE.RESTR.CAVITY>
0

>  <SCORE.RESTR.norm>
0

>  <SCORE.SYSTEM>
0.235725

>  <SCORE.SYSTEM.CONST>
0

>  <SCORE.SYSTEM.DIHEDRAL>
1.89063

>  <SCORE.SYSTEM.VDW>
-0.709588

>  <SCORE.SYSTEM.norm>
0.00760403

>  <SCORE.heavy>
31

>  <SCORE.norm>
-0.377122

$$$$
XAC_3REY_CCD_neutral
  rDOCK(R)          3D
libRbt.so/26.09/alpha
 35 37  0  0  0  0  0  0  0  0999 V2000
   50.3175   25.1773   44.5667 C   0  0  0  0  0  0
   49.5158   22.5065   45.0151 N   0  0  0  0  0  0
   50.6633   26.3363   44.3064 O   0  0  0  0  0  0
   49.8087   23.3372   46.0749 C   0  0  0  0  0  0
   50.2297   24.6316   45.8178 N   0  0  0  0  0  0
   49.7080   22.9174   47.2375 O   0  0  0  0  0  0
   49.6571   23.3005   41.5411 C   0  0  0  0  0  0
   49.3801   22.3531   42.4594 N   0  0  0  0  0  0
   49.6046   22.3657   35.9254 O   0  0  0  0  0  0
   49.6064   22.9848   43.6844 C   0  0  0  0  0  0
   50.0230   24.4592   42.1291 N   0  0  0  0  0  0
   50.0332   21.4236   33.2132 O   0  0  0  0  0  0
   49.9881   24.2570   43.4959 C   0  0  0  0  0  0
   47.8073   21.0744   33.3351 N   0  0  0  0  0  0
   50.6728   25.4708   46.9548 C   0  0  0  0  0  0
   46.4556   19.9268   30.0568 N   0  0  0  0  0  0
   49.4733   25.9725   47.7831 C   0  0  0  0  0  0
   49.1415   21.0999   45.2193 C   0  0  0  0  0  0
   50.3748   20.2024   45.4234 C   0  0  0  0  0  0
   51.2887   20.1800   44.1936 C   0  0  0  0  0  0
   49.8925   26.8410   48.9729 C   0  0  0  0  0  0
   49.5349   22.5794   37.2855 C   0  0  0  0  0  0
   48.6261   21.9282   38.1551 C   0  0  0  0  0  0
   48.6591   22.1735   39.5417 C   0  0  0  0  0  0
   49.5924   23.0826   40.0911 C   0  0  0  0  0  0
   50.4751   23.7587   39.2185 C   0  0  0  0  0  0
   50.4441   23.5069   37.8313 C   0  0  0  0  0  0
   49.1071   21.1326   35.4137 C   0  0  0  0  0  0
   49.0186   21.2245   33.8869 C   0  0  0  0  0  0
   47.5108   21.1415   31.9116 C   0  0  0  0  0  0
   46.7297   19.8897   31.4802 C   0  0  0  0  0  0
   50.2728   25.3075   41.6620 H   0  0  0  0  0  0
   47.0412   20.9016   33.9537 H   0  0  0  0  0  0
   46.0011   19.0797   29.7824 H   0  0  0  0  0  0
   45.8612   20.7052   29.8519 H   0  0  0  0  0  0
  1  3  2  0  0  0
  1  5  1  0  0  0
  1 13  1  0  0  0
  2  4  1  0  0  0
  2 10  1  0  0  0
  2 18  1  0  0  0
  4  5  1  0  0  0
  4  6  2  0  0  0
  5 15  1  0  0  0
  7  8  2  0  0  0
  7 11  1  0  0  0
  7 25  1  0  0  0
  8 10  1  0  0  0
  9 22  1  0  0  0
  9 28  1  0  0  0
 10 13  2  0  0  0
 11 13  1  0  0  0
 12 29  2  0  0  0
 14 29  1  0  0  0
 14 30  1  0  0  0
 15 17  1  0  0  0
 16 31  1  0  0  0
 17 21  1  0  0  0
 18 19  1  0  0  0
 19 20  1  0  0  0
 22 23  2  0  0  0
 22 27  1  0  0  0
 23 24  1  0  0  0
 24 25  2  0  0  0
 25 26  1  0  0  0
 26 27  2  0  0  0
 28 29  1  0  0  0
 30 31  1  0  0  0
 11 32  1  0  0  0
 14 33  1  0  0  0
 16 34  1  0  0  0
 16 35  1  0  0  0
M  END
>  <CHROM.0>
174.22656035,-178.32227194,3.17717769,8.26719325

>  <CHROM.1>
-81.56348817,107.21541043,31.69821671,-23.11332384,168.56041563,127.75752501
179.78640140,176.30782840,-62.90724038,60.95002674,-178.59447339,49.44816578
22.79685950,40.66574498,-0.57612334,-1.40304672,-0.82107464

>  <Name>
XAC_3REY_CCD_neutral

>  <RI>
-1.87621e+09

>  <Rbt.Current_Directory>
/mnt/nfs/CX900004_DS117/sbdd-project/references/stage5/d021_rdock_3REY_XAC_single_shot_qualification_20260917

>  <Rbt.Executable>
rbdock - v26.09-alpha

>  <Rbt.Library>
libRbt.so (26.09, Buildalpha)

>  <Rbt.Parameter_File>
dock.prm

>  <Rbt.Receptor>
3REY_rdock.prm

>  <SCORE>
-9.24929

>  <SCORE.INTER>
-11.4425

>  <SCORE.INTER.CONST>
1

>  <SCORE.INTER.POLAR>
-0.916515

>  <SCORE.INTER.REPUL>
0

>  <SCORE.INTER.ROT>
11

>  <SCORE.INTER.VDW>
-24.7263

>  <SCORE.INTER.norm>
-0.369112

>  <SCORE.INTRA>
1.15335

>  <SCORE.INTRA.DIHEDRAL>
3.86111

>  <SCORE.INTRA.DIHEDRAL.0>
8.42133

>  <SCORE.INTRA.POLAR>
0

>  <SCORE.INTRA.POLAR.0>
0

>  <SCORE.INTRA.REPUL>
0

>  <SCORE.INTRA.REPUL.0>
0

>  <SCORE.INTRA.VDW>
-0.777206

>  <SCORE.INTRA.VDW.0>
-1.06371

>  <SCORE.INTRA.norm>
0.0372048

>  <SCORE.RESTR>
0

>  <SCORE.RESTR.CAVITY>
0

>  <SCORE.RESTR.norm>
0

>  <SCORE.SYSTEM>
1.03984

>  <SCORE.SYSTEM.CONST>
0

>  <SCORE.SYSTEM.DIHEDRAL>
0.295438

>  <SCORE.SYSTEM.VDW>
0.892119

>  <SCORE.SYSTEM.norm>
0.0335432

>  <SCORE.heavy>
31

>  <SCORE.norm>
-0.298364

$$$$
XAC_3REY_CCD_neutral
  rDOCK(R)          3D
libRbt.so/26.09/alpha
 35 37  0  0  0  0  0  0  0  0999 V2000
   47.9491   21.5504   37.5512 C   0  0  0  0  0  0
   50.3470   22.4259   36.3426 N   0  0  0  0  0  0
   46.9155   21.2002   38.1339 O   0  0  0  0  0  0
   49.4774   21.6041   35.6590 C   0  0  0  0  0  0
   48.3261   21.1676   36.2934 N   0  0  0  0  0  0
   49.7389   21.2541   34.4982 O   0  0  0  0  0  0
   49.9835   23.6747   39.6634 C   0  0  0  0  0  0
   50.7518   23.6554   38.5559 N   0  0  0  0  0  0
   51.4050   26.2108   44.5584 O   0  0  0  0  0  0
   50.0451   22.8488   37.6609 C   0  0  0  0  0  0
   48.8605   22.9454   39.4922 N   0  0  0  0  0  0
   53.3171   27.2347   47.0675 O   0  0  0  0  0  0
   48.9001   22.4213   38.2140 C   0  0  0  0  0  0
   52.1381   25.3219   47.2732 N   0  0  0  0  0  0
   47.4689   20.1774   35.6021 C   0  0  0  0  0  0
   50.5174   24.8752   50.5986 N   0  0  0  0  0  0
   46.4360   20.8686   34.6899 C   0  0  0  0  0  0
   51.6226   22.8577   35.7540 C   0  0  0  0  0  0
   52.8160   22.0835   36.3411 C   0  0  0  0  0  0
   54.1595   22.5921   35.8075 C   0  0  0  0  0  0
   45.5987   19.8755   33.8785 C   0  0  0  0  0  0
   51.0970   25.6601   43.3327 C   0  0  0  0  0  0
   51.9029   25.7781   42.1740 C   0  0  0  0  0  0
   51.5322   25.1399   40.9743 C   0  0  0  0  0  0
   50.3432   24.3783   40.9003 C   0  0  0  0  0  0
   49.5215   24.2904   42.0470 C   0  0  0  0  0  0
   49.8978   24.9254   43.2486 C   0  0  0  0  0  0
   52.7455   26.0966   45.0273 C   0  0  0  0  0  0
   52.7582   26.2637   46.5502 C   0  0  0  0  0  0
   52.0502   25.2902   48.7259 C   0  0  0  0  0  0
   50.6480   24.8292   49.1553 C   0  0  0  0  0  0
   48.1338   22.8099   40.1658 H   0  0  0  0  0  0
   51.6982   24.5767   46.7725 H   0  0  0  0  0  0
   50.1391   25.7595   50.8713 H   0  0  0  0  0  0
   49.9059   24.1436   50.9016 H   0  0  0  0  0  0
  1  3  2  0  0  0
  1  5  1  0  0  0
  1 13  1  0  0  0
  2  4  1  0  0  0
  2 10  1  0  0  0
  2 18  1  0  0  0
  4  5  1  0  0  0
  4  6  2  0  0  0
  5 15  1  0  0  0
  7  8  2  0  0  0
  7 11  1  0  0  0
  7 25  1  0  0  0
  8 10  1  0  0  0
  9 22  1  0  0  0
  9 28  1  0  0  0
 10 13  2  0  0  0
 11 13  1  0  0  0
 12 29  2  0  0  0
 14 29  1  0  0  0
 14 30  1  0  0  0
 15 17  1  0  0  0
 16 31  1  0  0  0
 17 21  1  0  0  0
 18 19  1  0  0  0
 19 20  1  0  0  0
 22 23  2  0  0  0
 22 27  1  0  0  0
 23 24  1  0  0  0
 24 25  2  0  0  0
 25 26  1  0  0  0
 26 27  2  0  0  0
 28 29  1  0  0  0
 30 31  1  0  0  0
 11 32  1  0  0  0
 14 33  1  0  0  0
 16 34  1  0  0  0
 16 35  1  0  0  0
M  END
>  <CHROM.0>
61.41782866,68.28204298,148.47243477,-166.80319294

>  <CHROM.1>
-103.41433831,94.67998368,2.53595215,-43.59309724,-158.43706703,140.00313451
175.76647650,92.53668694,-175.99387139,-114.33533990,-176.32455798,50.29959909
23.52217412,40.56109248,1.82640911,-0.41200763,-1.82567144

>  <Name>
XAC_3REY_CCD_neutral

>  <RI>
-1.87621e+09

>  <Rbt.Current_Directory>
/mnt/nfs/CX900004_DS117/sbdd-project/references/stage5/d021_rdock_3REY_XAC_single_shot_qualification_20260917

>  <Rbt.Executable>
rbdock - v26.09-alpha

>  <Rbt.Library>
libRbt.so (26.09, Buildalpha)

>  <Rbt.Parameter_File>
dock.prm

>  <Rbt.Receptor>
3REY_rdock.prm

>  <SCORE>
-8.65404

>  <SCORE.INTER>
-10.7985

>  <SCORE.INTER.CONST>
1

>  <SCORE.INTER.POLAR>
-1.65811

>  <SCORE.INTER.REPUL>
0

>  <SCORE.INTER.ROT>
11

>  <SCORE.INTER.VDW>
-21.5609

>  <SCORE.INTER.norm>
-0.348338

>  <SCORE.INTRA>
1.1077

>  <SCORE.INTRA.DIHEDRAL>
4.75565

>  <SCORE.INTRA.DIHEDRAL.0>
8.42133

>  <SCORE.INTRA.POLAR>
0

>  <SCORE.INTRA.POLAR.0>
0

>  <SCORE.INTRA.REPUL>
0

>  <SCORE.INTRA.REPUL.0>
0

>  <SCORE.INTRA.VDW>
-1.27013

>  <SCORE.INTRA.VDW.0>
-1.06371

>  <SCORE.INTRA.norm>
0.0357322

>  <SCORE.RESTR>
0

>  <SCORE.RESTR.CAVITY>
0

>  <SCORE.RESTR.norm>
0

>  <SCORE.SYSTEM>
1.03674

>  <SCORE.SYSTEM.CONST>
0

>  <SCORE.SYSTEM.DIHEDRAL>
1.91205

>  <SCORE.SYSTEM.VDW>
0.0807116

>  <SCORE.SYSTEM.norm>
0.0334431

>  <SCORE.heavy>
31

>  <SCORE.norm>
-0.279163

$$$$
XAC_3REY_CCD_neutral
  rDOCK(R)          3D
libRbt.so/26.09/alpha
 35 37  0  0  0  0  0  0  0  0999 V2000
   47.7732   23.6821   30.9578 C   0  0  0  0  0  0
   47.1101   20.9403   31.0992 N   0  0  0  0  0  0
   48.1016   24.8748   30.9481 O   0  0  0  0  0  0
   46.5692   21.7420   30.1176 C   0  0  0  0  0  0
   46.8910   23.0892   30.0971 N   0  0  0  0  0  0
   45.7947   21.2576   29.2788 O   0  0  0  0  0  0
   49.3713   21.9095   33.6812 C   0  0  0  0  0  0
   48.6776   20.8947   33.1277 N   0  0  0  0  0  0
   52.7457   21.2766   38.2228 O   0  0  0  0  0  0
   48.0133   21.4808   32.0478 C   0  0  0  0  0  0
   49.1788   23.0606   33.0029 N   0  0  0  0  0  0
   54.7633   22.7362   40.7679 O   0  0  0  0  0  0
   48.3144   22.7852   31.9603 C   0  0  0  0  0  0
   54.3533   20.5995   40.1697 N   0  0  0  0  0  0
   46.1996   23.9674   29.1255 C   0  0  0  0  0  0
   57.5558   19.2038   41.4688 N   0  0  0  0  0  0
   47.2005   24.6374   28.1632 C   0  0  0  0  0  0
   46.7457   19.5218   31.2230 C   0  0  0  0  0  0
   45.9642   19.2418   32.5188 C   0  0  0  0  0  0
   45.6907   17.7478   32.7227 C   0  0  0  0  0  0
   46.5321   25.6222   27.1992 C   0  0  0  0  0  0
   51.9068   21.5047   37.1529 C   0  0  0  0  0  0
   51.6621   22.7772   36.5813 C   0  0  0  0  0  0
   50.8251   22.9094   35.4562 C   0  0  0  0  0  0
   50.2043   21.7759   34.8822 C   0  0  0  0  0  0
   50.4208   20.5112   35.4748 C   0  0  0  0  0  0
   51.2639   20.3807   36.5977 C   0  0  0  0  0  0
   53.2044   22.4016   38.9672 C   0  0  0  0  0  0
   54.1788   21.9220   40.0479 C   0  0  0  0  0  0
   55.2415   19.9463   41.1202 C   0  0  0  0  0  0
   56.6536   19.8320   40.5234 C   0  0  0  0  0  0
   49.5868   23.9487   33.2154 H   0  0  0  0  0  0
   53.8290   20.0105   39.5552 H   0  0  0  0  0  0
   58.4410   19.0469   41.0315 H   0  0  0  0  0  0
   57.6773   19.8019   42.2616 H   0  0  0  0  0  0
  1  3  2  0  0  0
  1  5  1  0  0  0
  1 13  1  0  0  0
  2  4  1  0  0  0
  2 10  1  0  0  0
  2 18  1  0  0  0
  4  5  1  0  0  0
  4  6  2  0  0  0
  5 15  1  0  0  0
  7  8  2  0  0  0
  7 11  1  0  0  0
  7 25  1  0  0  0
  8 10  1  0  0  0
  9 22  1  0  0  0
  9 28  1  0  0  0
 10 13  2  0  0  0
 11 13  1  0  0  0
 12 29  2  0  0  0
 14 29  1  0  0  0
 14 30  1  0  0  0
 15 17  1  0  0  0
 16 31  1  0  0  0
 17 21  1  0  0  0
 18 19  1  0  0  0
 19 20  1  0  0  0
 22 23  2  0  0  0
 22 27  1  0  0  0
 23 24  1  0  0  0
 24 25  2  0  0  0
 25 26  1  0  0  0
 26 27  2  0  0  0
 28 29  1  0  0  0
 30 31  1  0  0  0
 11 32  1  0  0  0
 14 33  1  0  0  0
 16 34  1  0  0  0
 16 35  1  0  0  0
M  END
>  <CHROM.0>
60.51777634,178.35238356,177.72283709,-4.69529465

>  <CHROM.1>
-113.18056198,62.64173317,-175.46676643,12.37837342,-176.77814631,-86.98835342
-176.38561144,173.89934258,-174.73483889,175.85074830,179.00590686,50.01218015
21.74167533,34.37951082,-2.62100940,0.77382931,2.62943161

>  <Name>
XAC_3REY_CCD_neutral

>  <RI>
-1.87621e+09

>  <Rbt.Current_Directory>
/mnt/nfs/CX900004_DS117/sbdd-project/references/stage5/d021_rdock_3REY_XAC_single_shot_qualification_20260917

>  <Rbt.Executable>
rbdock - v26.09-alpha

>  <Rbt.Library>
libRbt.so (26.09, Buildalpha)

>  <Rbt.Parameter_File>
dock.prm

>  <Rbt.Receptor>
3REY_rdock.prm

>  <SCORE>
-7.64608

>  <SCORE.INTER>
-7.53557

>  <SCORE.INTER.CONST>
1

>  <SCORE.INTER.POLAR>
-0.646154

>  <SCORE.INTER.REPUL>
0

>  <SCORE.INTER.ROT>
11

>  <SCORE.INTER.VDW>
-21.7386

>  <SCORE.INTER.norm>
-0.243083

>  <SCORE.INTRA>
-0.551093

>  <SCORE.INTRA.DIHEDRAL>
-0.503045

>  <SCORE.INTRA.DIHEDRAL.0>
8.42133

>  <SCORE.INTRA.POLAR>
-0.149772

>  <SCORE.INTRA.POLAR.0>
0

>  <SCORE.INTRA.REPUL>
0

>  <SCORE.INTRA.REPUL.0>
0

>  <SCORE.INTRA.VDW>
0.209654

>  <SCORE.INTRA.VDW.0>
-1.06371

>  <SCORE.INTRA.norm>
-0.0177772

>  <SCORE.RESTR>
0

>  <SCORE.RESTR.CAVITY>
0

>  <SCORE.RESTR.norm>
0

>  <SCORE.SYSTEM>
0.440584

>  <SCORE.SYSTEM.CONST>
0

>  <SCORE.SYSTEM.DIHEDRAL>
0.0579128

>  <SCORE.SYSTEM.VDW>
0.411627

>  <SCORE.SYSTEM.norm>
0.0142124

>  <SCORE.heavy>
31

>  <SCORE.norm>
-0.246648

$$$$
XAC_3REY_CCD_neutral
  rDOCK(R)          3D
libRbt.so/26.09/alpha
 35 37  0  0  0  0  0  0  0  0999 V2000
   50.2591   24.3143   42.6295 C   0  0  0  0  0  0
   52.5085   22.7909   41.8571 N   0  0  0  0  0  0
   49.2429   24.9595   42.9151 O   0  0  0  0  0  0
   52.5429   23.5612   42.9992 C   0  0  0  0  0  0
   51.4332   24.3209   43.3311 N   0  0  0  0  0  0
   53.5629   23.5786   43.7044 O   0  0  0  0  0  0
   49.7984   22.4401   39.5655 C   0  0  0  0  0  0
   51.0581   22.0689   39.8699 N   0  0  0  0  0  0
   47.0589   20.5216   34.9582 O   0  0  0  0  0  0
   51.3393   22.7476   41.0579 C   0  0  0  0  0  0
   49.3000   23.2851   40.4929 N   0  0  0  0  0  0
   45.3584   20.2833   32.9160 O   0  0  0  0  0  0
   50.2830   23.4785   41.4450 C   0  0  0  0  0  0
   46.9710   20.4408   31.3456 N   0  0  0  0  0  0
   51.5288   25.2486   44.4816 C   0  0  0  0  0  0
   46.4271   22.2846   29.1734 N   0  0  0  0  0  0
   52.6745   26.2624   44.2916 C   0  0  0  0  0  0
   53.6804   22.0257   41.4083 C   0  0  0  0  0  0
   54.2148   22.5352   40.0581 C   0  0  0  0  0  0
   55.3612   21.6711   39.5220 C   0  0  0  0  0  0
   52.5072   27.1221   43.0352 C   0  0  0  0  0  0
   47.6663   21.0479   36.0782 C   0  0  0  0  0  0
   46.9812   21.7047   37.1295 C   0  0  0  0  0  0
   47.6797   22.1691   38.2611 C   0  0  0  0  0  0
   49.0796   21.9986   38.3644 C   0  0  0  0  0  0
   49.7674   21.3749   37.2988 C   0  0  0  0  0  0
   49.0650   20.9056   36.1696 C   0  0  0  0  0  0
   47.5485   20.9187   33.6804 C   0  0  0  0  0  0
   46.5304   20.5171   32.6083 C   0  0  0  0  0  0
   46.1695   20.0645   30.1902 C   0  0  0  0  0  0
   45.4584   21.3028   29.6209 C   0  0  0  0  0  0
   48.3878   23.6951   40.4914 H   0  0  0  0  0  0
   47.9324   20.6610   31.1826 H   0  0  0  0  0  0
   46.8526   21.9707   28.3250 H   0  0  0  0  0  0
   45.9664   23.1579   29.0117 H   0  0  0  0  0  0
  1  3  2  0  0  0
  1  5  1  0  0  0
  1 13  1  0  0  0
  2  4  1  0  0  0
  2 10  1  0  0  0
  2 18  1  0  0  0
  4  5  1  0  0  0
  4  6  2  0  0  0
  5 15  1  0  0  0
  7  8  2  0  0  0
  7 11  1  0  0  0
  7 25  1  0  0  0
  8 10  1  0  0  0
  9 22  1  0  0  0
  9 28  1  0  0  0
 10 13  2  0  0  0
 11 13  1  0  0  0
 12 29  2  0  0  0
 14 29  1  0  0  0
 14 30  1  0  0  0
 15 17  1  0  0  0
 16 31  1  0  0  0
 17 21  1  0  0  0
 18 19  1  0  0  0
 19 20  1  0  0  0
 22 23  2  0  0  0
 22 27  1  0  0  0
 23 24  1  0  0  0
 24 25  2  0  0  0
 25 26  1  0  0  0
 26 27  2  0  0  0
 28 29  1  0  0  0
 30 31  1  0  0  0
 11 32  1  0  0  0
 14 33  1  0  0  0
 16 34  1  0  0  0
 16 35  1  0  0  0
M  END
>  <CHROM.0>
65.49002787,-59.89581306,-172.02357384,13.53092587

>  <CHROM.1>
-115.33528723,-119.78374285,165.30359562,126.83986035,-165.62086674,86.47466488
59.58283676,73.37403726,-175.12378784,19.62140497,61.71997245,49.77084028
22.52779804,38.33760426,1.08046536,-0.27945066,1.12670583

>  <Name>
XAC_3REY_CCD_neutral

>  <RI>
-1.87621e+09

>  <Rbt.Current_Directory>
/mnt/nfs/CX900004_DS117/sbdd-project/references/stage5/d021_rdock_3REY_XAC_single_shot_qualification_20260917

>  <Rbt.Executable>
rbdock - v26.09-alpha

>  <Rbt.Library>
libRbt.so (26.09, Buildalpha)

>  <Rbt.Parameter_File>
dock.prm

>  <Rbt.Receptor>
3REY_rdock.prm

>  <SCORE>
-4.17358

>  <SCORE.INTER>
-6.13414

>  <SCORE.INTER.CONST>
1

>  <SCORE.INTER.POLAR>
0

>  <SCORE.INTER.REPUL>
0

>  <SCORE.INTER.ROT>
11

>  <SCORE.INTER.VDW>
-22.5341

>  <SCORE.INTER.norm>
-0.197876

>  <SCORE.INTRA>
1.81759

>  <SCORE.INTRA.DIHEDRAL>
4.20805

>  <SCORE.INTRA.DIHEDRAL.0>
8.42133

>  <SCORE.INTRA.POLAR>
0

>  <SCORE.INTRA.POLAR.0>
0

>  <SCORE.INTRA.REPUL>
0

>  <SCORE.INTRA.REPUL.0>
0

>  <SCORE.INTRA.VDW>
-0.286441

>  <SCORE.INTRA.VDW.0>
-1.06371

>  <SCORE.INTRA.norm>
0.0586318

>  <SCORE.RESTR>
0

>  <SCORE.RESTR.CAVITY>
0

>  <SCORE.RESTR.norm>
0

>  <SCORE.SYSTEM>
0.142978

>  <SCORE.SYSTEM.CONST>
0

>  <SCORE.SYSTEM.DIHEDRAL>
0.50758

>  <SCORE.SYSTEM.VDW>
-0.110812

>  <SCORE.SYSTEM.norm>
0.0046122

>  <SCORE.heavy>
31

>  <SCORE.norm>
-0.134632

$$$$
XAC_3REY_CCD_neutral
  rDOCK(R)          3D
libRbt.so/26.09/alpha
 35 37  0  0  0  0  0  0  0  0999 V2000
   52.5449   24.2428   34.4002 C   0  0  0  0  0  0
   51.3739   21.7202   34.8930 N   0  0  0  0  0  0
   53.0483   25.3624   34.2470 O   0  0  0  0  0  0
   51.8197   22.0512   33.6318 C   0  0  0  0  0  0
   52.3597   23.3088   33.4183 N   0  0  0  0  0  0
   51.7205   21.2330   32.7050 O   0  0  0  0  0  0
   51.4769   23.7483   37.8248 C   0  0  0  0  0  0
   51.1280   22.5544   37.3050 N   0  0  0  0  0  0
   50.4356   25.4224   43.1658 O   0  0  0  0  0  0
   51.5040   22.6405   35.9625 C   0  0  0  0  0  0
   52.0457   24.5406   36.8915 N   0  0  0  0  0  0
   49.7444   24.6151   46.5650 O   0  0  0  0  0  0
   52.0643   23.8320   35.7050 C   0  0  0  0  0  0
   50.2703   26.5443   45.5196 N   0  0  0  0  0  0
   52.7086   23.7037   32.0343 C   0  0  0  0  0  0
   48.0472   26.5621   47.4647 N   0  0  0  0  0  0
   51.4621   24.1571   31.2486 C   0  0  0  0  0  0
   50.7191   20.4329   35.1655 C   0  0  0  0  0  0
   51.7006   19.2538   35.0449 C   0  0  0  0  0  0
   52.9000   19.3956   35.9881 C   0  0  0  0  0  0
   51.7461   24.3863   29.7612 C   0  0  0  0  0  0
   50.6897   24.9384   41.9003 C   0  0  0  0  0  0
   50.2284   23.6925   41.4094 C   0  0  0  0  0  0
   50.4963   23.3001   40.0834 C   0  0  0  0  0  0
   51.2401   24.1373   39.2201 C   0  0  0  0  0  0
   51.7303   25.3645   39.7216 C   0  0  0  0  0  0
   51.4557   25.7576   41.0477 C   0  0  0  0  0  0
   50.1420   24.4837   44.1966 C   0  0  0  0  0  0
   50.0336   25.2259   45.5324 C   0  0  0  0  0  0
   50.2046   27.4280   46.6745 C   0  0  0  0  0  0
   48.7381   27.7506   47.0038 C   0  0  0  0  0  0
   52.3904   25.4687   37.0327 H   0  0  0  0  0  0
   50.5127   26.9570   44.6419 H   0  0  0  0  0  0
   48.4630   26.2435   48.3162 H   0  0  0  0  0  0
   47.0834   26.7777   47.6250 H   0  0  0  0  0  0
  1  3  2  0  0  0
  1  5  1  0  0  0
  1 13  1  0  0  0
  2  4  1  0  0  0
  2 10  1  0  0  0
  2 18  1  0  0  0
  4  5  1  0  0  0
  4  6  2  0  0  0
  5 15  1  0  0  0
  7  8  2  0  0  0
  7 11  1  0  0  0
  7 25  1  0  0  0
  8 10  1  0  0  0
  9 22  1  0  0  0
  9 28  1  0  0  0
 10 13  2  0  0  0
 11 13  1  0  0  0
 12 29  2  0  0  0
 14 29  1  0  0  0
 14 30  1  0  0  0
 15 17  1  0  0  0
 16 31  1  0  0  0
 17 21  1  0  0  0
 18 19  1  0  0  0
 19 20  1  0  0  0
 22 23  2  0  0  0
 22 27  1  0  0  0
 23 24  1  0  0  0
 24 25  2  0  0  0
 25 26  1  0  0  0
 26 27  2  0  0  0
 28 29  1  0  0  0
 30 31  1  0  0  0
 11 32  1  0  0  0
 14 33  1  0  0  0
 16 34  1  0  0  0
 16 35  1  0  0  0
M  END
>  <CHROM.0>
62.89662613,-61.90465877,-176.01659298,4.94804056

>  <CHROM.1>
68.52435769,-97.50427019,-6.23072031,24.19129596,174.41335776,-77.75980805
-171.97075556,63.18333046,57.82210837,177.84165264,67.06111297,51.13833855
23.94327517,38.61283743,-0.41102033,1.37624635,0.15316552

>  <Name>
XAC_3REY_CCD_neutral

>  <RI>
-1.87621e+09

>  <Rbt.Current_Directory>
/mnt/nfs/CX900004_DS117/sbdd-project/references/stage5/d021_rdock_3REY_XAC_single_shot_qualification_20260917

>  <Rbt.Executable>
rbdock - v26.09-alpha

>  <Rbt.Library>
libRbt.so (26.09, Buildalpha)

>  <Rbt.Parameter_File>
dock.prm

>  <Rbt.Receptor>
3REY_rdock.prm

>  <SCORE>
-13.2078

>  <SCORE.INTER>
-12.3028

>  <SCORE.INTER.CONST>
1

>  <SCORE.INTER.POLAR>
-0.320532

>  <SCORE.INTER.REPUL>
0

>  <SCORE.INTER.ROT>
11

>  <SCORE.INTER.VDW>
-27.613

>  <SCORE.INTER.norm>
-0.396865

>  <SCORE.INTRA>
-0.921832

>  <SCORE.INTRA.DIHEDRAL>
0.583541

>  <SCORE.INTRA.DIHEDRAL.0>
8.42133

>  <SCORE.INTRA.POLAR>
-0.151821

>  <SCORE.INTRA.POLAR.0>
0

>  <SCORE.INTRA.REPUL>
0

>  <SCORE.INTRA.REPUL.0>
0

>  <SCORE.INTRA.VDW>
-0.697411

>  <SCORE.INTRA.VDW.0>
-1.06371

>  <SCORE.INTRA.norm>
-0.0297365

>  <SCORE.RESTR>
0

>  <SCORE.RESTR.CAVITY>
0

>  <SCORE.RESTR.norm>
0

>  <SCORE.SYSTEM>
0.0168345

>  <SCORE.SYSTEM.CONST>
0

>  <SCORE.SYSTEM.DIHEDRAL>
0.122184

>  <SCORE.SYSTEM.VDW>
-0.0442574

>  <SCORE.SYSTEM.norm>
0.000543049

>  <SCORE.heavy>
31

>  <SCORE.norm>
-0.426058

$$$$
XAC_3REY_CCD_neutral
  rDOCK(R)          3D
libRbt.so/26.09/alpha
 35 37  0  0  0  0  0  0  0  0999 V2000
   55.3122   21.9534   39.3691 C   0  0  0  0  0  0
   52.4944   22.0280   39.1919 N   0  0  0  0  0  0
   56.5492   21.9431   39.3857 O   0  0  0  0  0  0
   53.1125   21.5950   40.3449 C   0  0  0  0  0  0
   54.4960   21.5408   40.3861 N   0  0  0  0  0  0
   52.4304   21.2468   41.3204 O   0  0  0  0  0  0
   54.0583   23.1250   36.1803 C   0  0  0  0  0  0
   52.8897   22.9108   36.8174 N   0  0  0  0  0  0
   54.5739   24.7384   30.7449 O   0  0  0  0  0  0
   53.2662   22.4490   38.0808 C   0  0  0  0  0  0
   55.1094   22.8347   36.9761 N   0  0  0  0  0  0
   51.7097   26.3446   31.1234 O   0  0  0  0  0  0
   54.6028   22.4059   38.1883 C   0  0  0  0  0  0
   51.8612   24.7434   29.5408 N   0  0  0  0  0  0
   55.1460   20.9460   41.5765 C   0  0  0  0  0  0
   48.4959   24.3223   28.0056 N   0  0  0  0  0  0
   55.1425   19.4059   41.5073 C   0  0  0  0  0  0
   51.0308   22.0326   39.0575 C   0  0  0  0  0  0
   50.4449   23.4465   39.2183 C   0  0  0  0  0  0
   48.9165   23.4596   39.1085 C   0  0  0  0  0  0
   55.7353   18.7520   42.7590 C   0  0  0  0  0  0
   54.3757   24.3873   32.0632 C   0  0  0  0  0  0
   53.1107   24.1202   32.6415 C   0  0  0  0  0  0
   53.0077   23.7202   33.9882 C   0  0  0  0  0  0
   54.1637   23.5882   34.7916 C   0  0  0  0  0  0
   55.4224   23.8894   34.2236 C   0  0  0  0  0  0
   55.5235   24.2840   32.8735 C   0  0  0  0  0  0
   53.9058   25.8959   30.2512 C   0  0  0  0  0  0
   52.3923   25.6763   30.3421 C   0  0  0  0  0  0
   50.4540   24.3752   29.4861 C   0  0  0  0  0  0
   49.9328   24.5123   28.0464 C   0  0  0  0  0  0
   56.0763   22.9155   36.7333 H   0  0  0  0  0  0
   52.4845   24.2584   28.9278 H   0  0  0  0  0  0
   48.1604   24.5115   27.0831 H   0  0  0  0  0  0
   48.2773   23.3776   28.2523 H   0  0  0  0  0  0
  1  3  2  0  0  0
  1  5  1  0  0  0
  1 13  1  0  0  0
  2  4  1  0  0  0
  2 10  1  0  0  0
  2 18  1  0  0  0
  4  5  1  0  0  0
  4  6  2  0  0  0
  5 15  1  0  0  0
  7  8  2  0  0  0
  7 11  1  0  0  0
  7 25  1  0  0  0
  8 10  1  0  0  0
  9 22  1  0  0  0
  9 28  1  0  0  0
 10 13  2  0  0  0
 11 13  1  0  0  0
 12 29  2  0  0  0
 14 29  1  0  0  0
 14 30  1  0  0  0
 15 17  1  0  0  0
 16 31  1  0  0  0
 17 21  1  0  0  0
 18 19  1  0  0  0
 19 20  1  0  0  0
 22 23  2  0  0  0
 22 27  1  0  0  0
 23 24  1  0  0  0
 24 25  2  0  0  0
 25 26  1  0  0  0
 26 27  2  0  0  0
 28 29  1  0  0  0
 30 31  1  0  0  0
 11 32  1  0  0  0
 14 33  1  0  0  0
 16 34  1  0  0  0
 16 35  1  0  0  0
M  END
>  <CHROM.0>
174.48215957,-59.55202988,-171.44496932,-167.49777889

>  <CHROM.1>
102.93054797,-97.14013315,-6.00257040,57.45420471,-62.20894769,124.62781129
-176.72971071,173.93229382,-178.83253268,112.72342275,-172.41091588,53.16755448
23.11398329,35.70523581,-1.36907477,0.04901181,-1.24320338

>  <Name>
XAC_3REY_CCD_neutral

>  <RI>
-1.87621e+09

>  <Rbt.Current_Directory>
/mnt/nfs/CX900004_DS117/sbdd-project/references/stage5/d021_rdock_3REY_XAC_single_shot_qualification_20260917

>  <Rbt.Executable>
rbdock - v26.09-alpha

>  <Rbt.Library>
libRbt.so (26.09, Buildalpha)

>  <Rbt.Parameter_File>
dock.prm

>  <Rbt.Receptor>
3REY_rdock.prm

>  <SCORE>
-3.32868

>  <SCORE.INTER>
-4.24152

>  <SCORE.INTER.CONST>
1

>  <SCORE.INTER.POLAR>
0

>  <SCORE.INTER.REPUL>
0

>  <SCORE.INTER.ROT>
11

>  <SCORE.INTER.VDW>
-20.6415

>  <SCORE.INTER.norm>
-0.136823

>  <SCORE.INTRA>
0.0119791

>  <SCORE.INTRA.DIHEDRAL>
2.86336

>  <SCORE.INTRA.DIHEDRAL.0>
8.42133

>  <SCORE.INTRA.POLAR>
0

>  <SCORE.INTRA.POLAR.0>
0

>  <SCORE.INTRA.REPUL>
0

>  <SCORE.INTRA.REPUL.0>
0

>  <SCORE.INTRA.VDW>
-1.4197

>  <SCORE.INTRA.VDW.0>
-1.06371

>  <SCORE.INTRA.norm>
0.000386423

>  <SCORE.RESTR>
0

>  <SCORE.RESTR.CAVITY>
0

>  <SCORE.RESTR.norm>
0

>  <SCORE.SYSTEM>
0.900855

>  <SCORE.SYSTEM.CONST>
0

>  <SCORE.SYSTEM.DIHEDRAL>
0.485857

>  <SCORE.SYSTEM.VDW>
0.657926

>  <SCORE.SYSTEM.norm>
0.0290598

>  <SCORE.heavy>
31

>  <SCORE.norm>
-0.107377

$$$$
XAC_3REY_CCD_neutral
  rDOCK(R)          3D
libRbt.so/26.09/alpha
 35 37  0  0  0  0  0  0  0  0999 V2000
   48.6438   20.9692   35.7808 C   0  0  0  0  0  0
   50.9376   22.3822   34.9329 N   0  0  0  0  0  0
   47.6443   20.3798   36.2100 O   0  0  0  0  0  0
   50.3018   21.5039   34.0825 C   0  0  0  0  0  0
   49.1985   20.8035   34.5417 N   0  0  0  0  0  0
   50.7286   21.3390   32.9297 O   0  0  0  0  0  0
   50.0470   23.1632   38.2968 C   0  0  0  0  0  0
   50.9034   23.4045   37.2840 N   0  0  0  0  0  0
   50.5308   25.3394   43.5355 O   0  0  0  0  0  0
   50.4434   22.5934   36.2440 C   0  0  0  0  0  0
   49.0993   22.2729   37.9343 N   0  0  0  0  0  0
   52.4899   27.1046   45.9185 O   0  0  0  0  0  0
   49.3521   21.9122   36.6243 C   0  0  0  0  0  0
   50.4270   26.1953   46.0139 N   0  0  0  0  0  0
   48.6068   19.7635   33.6690 C   0  0  0  0  0  0
   49.4842   25.2912   49.5048 N   0  0  0  0  0  0
   47.7380   20.3890   32.5598 C   0  0  0  0  0  0
   52.1592   23.0945   34.5323 C   0  0  0  0  0  0
   51.8594   24.2359   33.5446 C   0  0  0  0  0  0
   53.1352   24.9115   33.0306 C   0  0  0  0  0  0
   46.5448   21.1760   33.1100 C   0  0  0  0  0  0
   50.4369   24.8866   42.2368 C   0  0  0  0  0  0
   51.2677   25.3182   41.1739 C   0  0  0  0  0  0
   51.1313   24.7638   39.8862 C   0  0  0  0  0  0
   50.1554   23.7739   39.6270 C   0  0  0  0  0  0
   49.3032   23.3696   40.6797 C   0  0  0  0  0  0
   49.4457   23.9219   41.9694 C   0  0  0  0  0  0
   51.6132   26.2043   43.8677 C   0  0  0  0  0  0
   51.5454   26.5385   45.3614 C   0  0  0  0  0  0
   50.1732   26.4109   47.4310 C   0  0  0  0  0  0
   49.7277   25.0949   48.0889 C   0  0  0  0  0  0
   48.3520   21.9368   38.5076 H   0  0  0  0  0  0
   49.7049   25.7531   45.4826 H   0  0  0  0  0  0
   50.3531   25.4461   49.9744 H   0  0  0  0  0  0
   48.8897   26.0856   49.6338 H   0  0  0  0  0  0
  1  3  2  0  0  0
  1  5  1  0  0  0
  1 13  1  0  0  0
  2  4  1  0  0  0
  2 10  1  0  0  0
  2 18  1  0  0  0
  4  5  1  0  0  0
  4  6  2  0  0  0
  5 15  1  0  0  0
  7  8  2  0  0  0
  7 11  1  0  0  0
  7 25  1  0  0  0
  8 10  1  0  0  0
  9 22  1  0  0  0
  9 28  1  0  0  0
 10 13  2  0  0  0
 11 13  1  0  0  0
 12 29  2  0  0  0
 14 29  1  0  0  0
 14 30  1  0  0  0
 15 17  1  0  0  0
 16 31  1  0  0  0
 17 21  1  0  0  0
 18 19  1  0  0  0
 19 20  1  0  0  0
 22 23  2  0  0  0
 22 27  1  0  0  0
 23 24  1  0  0  0
 24 25  2  0  0  0
 25 26  1  0  0  0
 26 27  2  0  0  0
 28 29  1  0  0  0
 30 31  1  0  0  0
 11 32  1  0  0  0
 14 33  1  0  0  0
 16 34  1  0  0  0
 16 35  1  0  0  0
M  END
>  <CHROM.0>
63.77238389,67.10373761,7.45892359,-177.50476783

>  <CHROM.1>
74.70222567,104.52568647,5.47509298,-6.23607391,-178.05046565,-128.08895911
-61.98646301,-70.10319000,-175.28809669,168.93101234,179.41456822,50.15837560
23.51574236,39.10060379,1.66447831,-0.67639727,-1.84464577

>  <Name>
XAC_3REY_CCD_neutral

>  <RI>
-1.87621e+09

>  <Rbt.Current_Directory>
/mnt/nfs/CX900004_DS117/sbdd-project/references/stage5/d021_rdock_3REY_XAC_single_shot_qualification_20260917

>  <Rbt.Executable>
rbdock - v26.09-alpha

>  <Rbt.Library>
libRbt.so (26.09, Buildalpha)

>  <Rbt.Parameter_File>
dock.prm

>  <Rbt.Receptor>
3REY_rdock.prm

>  <SCORE>
-10.3542

>  <SCORE.INTER>
-10.0032

>  <SCORE.INTER.CONST>
1

>  <SCORE.INTER.POLAR>
-0.8

>  <SCORE.INTER.REPUL>
0.00108229

>  <SCORE.INTER.ROT>
11

>  <SCORE.INTER.VDW>
-23.6886

>  <SCORE.INTER.norm>
-0.322683

>  <SCORE.INTRA>
-0.811521

>  <SCORE.INTRA.DIHEDRAL>
-0.830181

>  <SCORE.INTRA.DIHEDRAL.0>
8.42133

>  <SCORE.INTRA.POLAR>
-0.133143

>  <SCORE.INTRA.POLAR.0>
0

>  <SCORE.INTRA.REPUL>
0

>  <SCORE.INTRA.REPUL.0>
0

>  <SCORE.INTRA.VDW>
0.0562547

>  <SCORE.INTRA.VDW.0>
-1.06371

>  <SCORE.INTRA.norm>
-0.0261781

>  <SCORE.RESTR>
0

>  <SCORE.RESTR.CAVITY>
0

>  <SCORE.RESTR.norm>
0

>  <SCORE.SYSTEM>
0.460469

>  <SCORE.SYSTEM.CONST>
0

>  <SCORE.SYSTEM.DIHEDRAL>
0.409821

>  <SCORE.SYSTEM.VDW>
0.255558

>  <SCORE.SYSTEM.norm>
0.0148538

>  <SCORE.heavy>
31

>  <SCORE.norm>
-0.334008

$$$$
XAC_3REY_CCD_neutral
  rDOCK(R)          3D
libRbt.so/26.09/alpha
 35 37  0  0  0  0  0  0  0  0999 V2000
   52.0534   24.1994   37.3602 C   0  0  0  0  0  0
   53.4568   21.7537   37.5218 N   0  0  0  0  0  0
   51.4144   25.2587   37.3486 O   0  0  0  0  0  0
   53.5618   22.5488   36.4012 C   0  0  0  0  0  0
   52.8346   23.7263   36.3421 N   0  0  0  0  0  0
   54.2878   22.1985   35.4586 O   0  0  0  0  0  0
   51.5104   22.3802   40.4438 C   0  0  0  0  0  0
   52.3682   21.5384   39.8332 N   0  0  0  0  0  0
   49.3691   21.3731   45.6220 O   0  0  0  0  0  0
   52.6473   22.1572   38.6124 C   0  0  0  0  0  0
   51.2636   23.4657   39.6802 N   0  0  0  0  0  0
   51.5273   23.5818   46.2903 O   0  0  0  0  0  0
   51.9910   23.3232   38.5137 C   0  0  0  0  0  0
   49.6787   23.8175   47.5625 N   0  0  0  0  0  0
   52.8468   24.5033   35.0813 C   0  0  0  0  0  0
   49.4319   27.4551   46.7934 N   0  0  0  0  0  0
   51.6292   24.1618   34.1996 C   0  0  0  0  0  0
   54.1395   20.4553   37.6118 C   0  0  0  0  0  0
   53.5926   19.4477   36.5852 C   0  0  0  0  0  0
   54.2860   18.0844   36.6808 C   0  0  0  0  0  0
   51.6591   22.7237   33.6737 C   0  0  0  0  0  0
   49.8239   21.6692   44.3547 C   0  0  0  0  0  0
   49.6782   22.9285   43.7231 C   0  0  0  0  0  0
   50.2183   23.1553   42.4421 C   0  0  0  0  0  0
   50.9068   22.1274   41.7575 C   0  0  0  0  0  0
   51.0208   20.8605   42.3737 C   0  0  0  0  0  0
   50.4843   20.6376   43.6586 C   0  0  0  0  0  0
   50.2527   21.5877   46.7189 C   0  0  0  0  0  0
   50.5407   23.0874   46.8426 C   0  0  0  0  0  0
   49.7819   25.2481   47.8111 C   0  0  0  0  0  0
   49.4207   26.0281   46.5366 C   0  0  0  0  0  0
   50.6653   24.2318   39.9154 H   0  0  0  0  0  0
   48.8978   23.3393   47.9636 H   0  0  0  0  0  0
   49.2404   27.9483   45.9452 H   0  0  0  0  0  0
   48.7319   27.6770   47.4730 H   0  0  0  0  0  0
  1  3  2  0  0  0
  1  5  1  0  0  0
  1 13  1  0  0  0
  2  4  1  0  0  0
  2 10  1  0  0  0
  2 18  1  0  0  0
  4  5  1  0  0  0
  4  6  2  0  0  0
  5 15  1  0  0  0
  7  8  2  0  0  0
  7 11  1  0  0  0
  7 25  1  0  0  0
  8 10  1  0  0  0
  9 22  1  0  0  0
  9 28  1  0  0  0
 10 13  2  0  0  0
 11 13  1  0  0  0
 12 29  2  0  0  0
 14 29  1  0  0  0
 14 30  1  0  0  0
 15 17  1  0  0  0
 16 31  1  0  0  0
 17 21  1  0  0  0
 18 19  1  0  0  0
 19 20  1  0  0  0
 22 23  2  0  0  0
 22 27  1  0  0  0
 23 24  1  0  0  0
 24 25  2  0  0  0
 25 26  1  0  0  0
 26 27  2  0  0  0
 28 29  1  0  0  0
 30 31  1  0  0  0
 11 32  1  0  0  0
 14 33  1  0  0  0
 16 34  1  0  0  0
 16 35  1  0  0  0
M  END
>  <CHROM.0>
63.84939144,-63.02669727,12.78373204,-170.80642521

>  <CHROM.1>
-65.08950121,-82.01021708,168.20031392,-90.50009163,65.06829861,73.60066624
-66.52164633,177.18201894,-179.32854365,-93.26708084,176.18313975,51.53427237
22.79197994,40.78018395,0.64463412,1.21277522,-0.82122048

>  <Name>
XAC_3REY_CCD_neutral

>  <RI>
-1.87621e+09

>  <Rbt.Current_Directory>
/mnt/nfs/CX900004_DS117/sbdd-project/references/stage5/d021_rdock_3REY_XAC_single_shot_qualification_20260917

>  <Rbt.Executable>
rbdock - v26.09-alpha

>  <Rbt.Library>
libRbt.so (26.09, Buildalpha)

>  <Rbt.Parameter_File>
dock.prm

>  <Rbt.Receptor>
3REY_rdock.prm

>  <SCORE>
-4.80518

>  <SCORE.INTER>
-4.86145

>  <SCORE.INTER.CONST>
1

>  <SCORE.INTER.POLAR>
0

>  <SCORE.INTER.REPUL>
0

>  <SCORE.INTER.ROT>
11

>  <SCORE.INTER.VDW>
-21.2614

>  <SCORE.INTER.norm>
-0.156821

>  <SCORE.INTRA>
0.214646

>  <SCORE.INTRA.DIHEDRAL>
4.79928

>  <SCORE.INTRA.DIHEDRAL.0>
8.42133

>  <SCORE.INTRA.POLAR>
0

>  <SCORE.INTRA.POLAR.0>
0

>  <SCORE.INTRA.REPUL>
0

>  <SCORE.INTRA.REPUL.0>
0

>  <SCORE.INTRA.VDW>
-2.185

>  <SCORE.INTRA.VDW.0>
-1.06371

>  <SCORE.INTRA.norm>
0.00692406

>  <SCORE.RESTR>
0

>  <SCORE.RESTR.CAVITY>
0

>  <SCORE.RESTR.norm>
0

>  <SCORE.SYSTEM>
-0.158382

>  <SCORE.SYSTEM.CONST>
0

>  <SCORE.SYSTEM.DIHEDRAL>
0.479623

>  <SCORE.SYSTEM.VDW>
-0.398194

>  <SCORE.SYSTEM.norm>
-0.0051091

>  <SCORE.heavy>
31

>  <SCORE.norm>
-0.155006

$$$$
XAC_3REY_CCD_neutral
  rDOCK(R)          3D
libRbt.so/26.09/alpha
 35 37  0  0  0  0  0  0  0  0999 V2000
   50.2677   26.9789   46.4332 C   0  0  0  0  0  0
   49.6276   24.2656   46.8864 N   0  0  0  0  0  0
   50.5624   28.1520   46.1733 O   0  0  0  0  0  0
   49.5243   25.1890   47.9039 C   0  0  0  0  0  0
   49.8769   26.5053   47.6554 N   0  0  0  0  0  0
   49.1346   24.8332   49.0263 O   0  0  0  0  0  0
   50.6835   24.8536   43.5310 C   0  0  0  0  0  0
   50.2457   23.9392   44.4195 N   0  0  0  0  0  0
   51.9301   23.5838   38.1230 O   0  0  0  0  0  0
   50.0504   24.6677   45.5951 C   0  0  0  0  0  0
   50.7541   26.0815   44.0875 N   0  0  0  0  0  0
   53.4183   23.7752   35.5492 O   0  0  0  0  0  0
   50.3479   25.9617   45.4031 C   0  0  0  0  0  0
   51.2693   23.7177   34.8637 N   0  0  0  0  0  0
   49.8938   27.4595   48.7879 C   0  0  0  0  0  0
   52.7623   25.1635   32.8477 N   0  0  0  0  0  0
   50.9925   27.1008   49.8080 C   0  0  0  0  0  0
   49.3453   22.8403   47.1078 C   0  0  0  0  0  0
   50.6140   22.0572   47.4893 C   0  0  0  0  0  0
   50.3876   20.5416   47.4807 C   0  0  0  0  0  0
   52.4034   27.1832   49.2179 C   0  0  0  0  0  0
   51.6868   23.9506   39.4294 C   0  0  0  0  0  0
   51.7998   25.2719   39.9268 C   0  0  0  0  0  0
   51.4838   25.5630   41.2682 C   0  0  0  0  0  0
   51.0583   24.5401   42.1470 C   0  0  0  0  0  0
   50.9801   23.2159   41.6591 C   0  0  0  0  0  0
   51.2914   22.9281   40.3142 C   0  0  0  0  0  0
   51.7684   24.5705   37.1080 C   0  0  0  0  0  0
   52.2220   23.9863   35.7663 C   0  0  0  0  0  0
   51.4934   23.1757   33.5314 C   0  0  0  0  0  0
   51.6289   24.3221   32.5161 C   0  0  0  0  0  0
   51.0459   26.9225   43.6318 H   0  0  0  0  0  0
   50.3235   23.9057   35.1273 H   0  0  0  0  0  0
   53.6100   24.6538   32.7025 H   0  0  0  0  0  0
   52.7574   25.9752   32.2627 H   0  0  0  0  0  0
  1  3  2  0  0  0
  1  5  1  0  0  0
  1 13  1  0  0  0
  2  4  1  0  0  0
  2 10  1  0  0  0
  2 18  1  0  0  0
  4  5  1  0  0  0
  4  6  2  0  0  0
  5 15  1  0  0  0
  7  8  2  0  0  0
  7 11  1  0  0  0
  7 25  1  0  0  0
  8 10  1  0  0  0
  9 22  1  0  0  0
  9 28  1  0  0  0
 10 13  2  0  0  0
 11 13  1  0  0  0
 12 29  2  0  0  0
 14 29  1  0  0  0
 14 30  1  0  0  0
 15 17  1  0  0  0
 16 31  1  0  0  0
 17 21  1  0  0  0
 18 19  1  0  0  0
 19 20  1  0  0  0
 22 23  2  0  0  0
 22 27  1  0  0  0
 23 24  1  0  0  0
 24 25  2  0  0  0
 25 26  1  0  0  0
 26 27  2  0  0  0
 28 29  1  0  0  0
 30 31  1  0  0  0
 11 32  1  0  0  0
 14 33  1  0  0  0
 16 34  1  0  0  0
 16 35  1  0  0  0
M  END
>  <CHROM.0>
-56.15506704,-178.56922640,18.96146803,10.10296926

>  <CHROM.1>
-91.77606337,-111.36909419,178.74196710,-25.89903262,174.43662389,-92.60582204
62.87541053,68.29123535,-169.88428358,-70.78214533,61.18923070,50.97307576
24.72383093,42.59671217,-2.31492463,-1.36509391,-2.40914571

>  <Name>
XAC_3REY_CCD_neutral

>  <RI>
-1.87621e+09

>  <Rbt.Current_Directory>
/mnt/nfs/CX900004_DS117/sbdd-project/references/stage5/d021_rdock_3REY_XAC_single_shot_qualification_20260917

>  <Rbt.Executable>
rbdock - v26.09-alpha

>  <Rbt.Library>
libRbt.so (26.09, Buildalpha)

>  <Rbt.Parameter_File>
dock.prm

>  <Rbt.Receptor>
3REY_rdock.prm

>  <SCORE>
-6.81787

>  <SCORE.INTER>
-7.18396

>  <SCORE.INTER.CONST>
1

>  <SCORE.INTER.POLAR>
-0.706064

>  <SCORE.INTER.REPUL>
0

>  <SCORE.INTER.ROT>
11

>  <SCORE.INTER.VDW>
-21.1833

>  <SCORE.INTER.norm>
-0.231741

>  <SCORE.INTRA>
-0.811187

>  <SCORE.INTRA.DIHEDRAL>
0.699279

>  <SCORE.INTRA.DIHEDRAL.0>
8.42133

>  <SCORE.INTRA.POLAR>
0

>  <SCORE.INTRA.POLAR.0>
0

>  <SCORE.INTRA.REPUL>
0

>  <SCORE.INTRA.REPUL.0>
0

>  <SCORE.INTRA.VDW>
-1.16083

>  <SCORE.INTRA.VDW.0>
-1.06371

>  <SCORE.INTRA.norm>
-0.0261673

>  <SCORE.RESTR>
0

>  <SCORE.RESTR.CAVITY>
0

>  <SCORE.RESTR.norm>
0

>  <SCORE.SYSTEM>
1.17727

>  <SCORE.SYSTEM.CONST>
0

>  <SCORE.SYSTEM.DIHEDRAL>
0.741237

>  <SCORE.SYSTEM.VDW>
0.806652

>  <SCORE.SYSTEM.norm>
0.0379765

>  <SCORE.heavy>
31

>  <SCORE.norm>
-0.219931

$$$$
XAC_3REY_CCD_neutral
  rDOCK(R)          3D
libRbt.so/26.09/alpha
 35 37  0  0  0  0  0  0  0  0999 V2000
   48.5990   21.0999   35.9753 C   0  0  0  0  0  0
   51.0208   22.2749   35.1199 N   0  0  0  0  0  0
   47.5458   20.6154   36.4071 O   0  0  0  0  0  0
   50.3136   21.4395   34.2828 C   0  0  0  0  0  0
   49.1463   20.8549   34.7460 N   0  0  0  0  0  0
   50.7328   21.2092   33.1385 O   0  0  0  0  0  0
   50.1784   23.2128   38.4561 C   0  0  0  0  0  0
   51.0618   23.3504   37.4471 N   0  0  0  0  0  0
   50.7165   25.8429   43.4767 O   0  0  0  0  0  0
   50.5374   22.5613   36.4207 C   0  0  0  0  0  0
   49.1553   22.4057   38.1036 N   0  0  0  0  0  0
   48.8840   27.1523   45.8186 O   0  0  0  0  0  0
   49.3845   21.9928   36.8048 C   0  0  0  0  0  0
   51.0532   26.8087   46.3361 N   0  0  0  0  0  0
   48.4682   19.8539   33.8907 C   0  0  0  0  0  0
   51.0284   29.5522   45.5659 N   0  0  0  0  0  0
   47.7859   20.5204   32.6796 C   0  0  0  0  0  0
   52.3064   22.8619   34.7163 C   0  0  0  0  0  0
   52.1267   24.2484   34.0734 C   0  0  0  0  0  0
   53.4486   24.8267   33.5570 C   0  0  0  0  0  0
   46.6758   21.4954   33.0831 C   0  0  0  0  0  0
   50.5611   25.1380   42.3022 C   0  0  0  0  0  0
   49.5747   24.1448   42.0863 C   0  0  0  0  0  0
   49.4588   23.5089   40.8348 C   0  0  0  0  0  0
   50.3317   23.8417   39.7733 C   0  0  0  0  0  0
   51.3385   24.8074   40.0006 C   0  0  0  0  0  0
   51.4487   25.4468   41.2526 C   0  0  0  0  0  0
   50.0099   25.3914   44.6285 C   0  0  0  0  0  0
   49.9372   26.5318   45.6490 C   0  0  0  0  0  0
   51.1944   27.8579   47.3352 C   0  0  0  0  0  0
   51.8206   29.1080   46.6962 C   0  0  0  0  0  0
   48.3754   22.1534   38.6765 H   0  0  0  0  0  0
   51.8582   26.2469   46.1466 H   0  0  0  0  0  0
   51.2796   30.4908   45.3306 H   0  0  0  0  0  0
   51.2013   28.9547   44.7822 H   0  0  0  0  0  0
  1  3  2  0  0  0
  1  5  1  0  0  0
  1 13  1  0  0  0
  2  4  1  0  0  0
  2 10  1  0  0  0
  2 18  1  0  0  0
  4  5  1  0  0  0
  4  6  2  0  0  0
  5 15  1  0  0  0
  7  8  2  0  0  0
  7 11  1  0  0  0
  7 25  1  0  0  0
  8 10  1  0  0  0
  9 22  1  0  0  0
  9 28  1  0  0  0
 10 13  2  0  0  0
 11 13  1  0  0  0
 12 29  2  0  0  0
 14 29  1  0  0  0
 14 30  1  0  0  0
 15 17  1  0  0  0
 16 31  1  0  0  0
 17 21  1  0  0  0
 18 19  1  0  0  0
 19 20  1  0  0  0
 22 23  2  0  0  0
 22 27  1  0  0  0
 23 24  1  0  0  0
 24 25  2  0  0  0
 25 26  1  0  0  0
 26 27  2  0  0  0
 28 29  1  0  0  0
 30 31  1  0  0  0
 11 32  1  0  0  0
 14 33  1  0  0  0
 16 34  1  0  0  0
 16 35  1  0  0  0
M  END
>  <CHROM.0>
63.74106355,-177.92010474,-178.88281852,174.50218330

>  <CHROM.1>
92.70340390,110.13668866,-171.53292922,11.82182169,-161.13332976,-97.22289285
-62.79704396,163.54228142,-175.87406685,104.91996028,56.45700818,50.18458844
23.91066160,39.07678678,1.67364749,-0.62924484,-1.97634902

>  <Name>
XAC_3REY_CCD_neutral

>  <RI>
-1.87621e+09

>  <Rbt.Current_Directory>
/mnt/nfs/CX900004_DS117/sbdd-project/references/stage5/d021_rdock_3REY_XAC_single_shot_qualification_20260917

>  <Rbt.Executable>
rbdock - v26.09-alpha

>  <Rbt.Library>
libRbt.so (26.09, Buildalpha)

>  <Rbt.Parameter_File>
dock.prm

>  <Rbt.Receptor>
3REY_rdock.prm

>  <SCORE>
-8.96523

>  <SCORE.INTER>
-8.94646

>  <SCORE.INTER.CONST>
1

>  <SCORE.INTER.POLAR>
-0.632456

>  <SCORE.INTER.REPUL>
0

>  <SCORE.INTER.ROT>
11

>  <SCORE.INTER.VDW>
-23.1961

>  <SCORE.INTER.norm>
-0.288596

>  <SCORE.INTRA>
-0.425193

>  <SCORE.INTRA.DIHEDRAL>
1.36386

>  <SCORE.INTRA.DIHEDRAL.0>
8.42133

>  <SCORE.INTRA.POLAR>
0

>  <SCORE.INTRA.POLAR.0>
0

>  <SCORE.INTRA.REPUL>
0

>  <SCORE.INTRA.REPUL.0>
0

>  <SCORE.INTRA.VDW>
-1.10712

>  <SCORE.INTRA.VDW.0>
-1.06371

>  <SCORE.INTRA.norm>
-0.0137159

>  <SCORE.RESTR>
0

>  <SCORE.RESTR.CAVITY>
0

>  <SCORE.RESTR.norm>
0

>  <SCORE.SYSTEM>
0.406429

>  <SCORE.SYSTEM.CONST>
0

>  <SCORE.SYSTEM.DIHEDRAL>
0.139211

>  <SCORE.SYSTEM.VDW>
0.336824

>  <SCORE.SYSTEM.norm>
0.0131106

>  <SCORE.heavy>
31

>  <SCORE.norm>
-0.289201

$$$$
XAC_3REY_CCD_neutral
  rDOCK(R)          3D
libRbt.so/26.09/alpha
 35 37  0  0  0  0  0  0  0  0999 V2000
   50.0151   24.9314   45.5837 C   0  0  0  0  0  0
   49.3035   22.2157   45.2743 N   0  0  0  0  0  0
   50.3365   26.1239   45.6550 O   0  0  0  0  0  0
   49.3008   22.8029   46.5210 C   0  0  0  0  0  0
   49.6862   24.1280   46.6406 N   0  0  0  0  0  0
   48.9710   22.1412   47.5168 O   0  0  0  0  0  0
   50.1624   23.7408   42.1670 C   0  0  0  0  0  0
   49.7486   22.6142   42.7809 N   0  0  0  0  0  0
   51.0060   24.1185   36.5493 O   0  0  0  0  0  0
   49.6571   22.9705   44.1284 C   0  0  0  0  0  0
   50.3151   24.7508   43.0496 N   0  0  0  0  0  0
   53.7801   22.9173   34.6660 O   0  0  0  0  0  0
   49.9903   24.2587   44.2996 C   0  0  0  0  0  0
   51.7457   22.0566   35.1260 N   0  0  0  0  0  0
   49.8119   24.7089   47.9971 C   0  0  0  0  0  0
   52.4099   19.4884   36.4083 N   0  0  0  0  0  0
   51.1422   24.3015   48.6612 C   0  0  0  0  0  0
   48.9824   20.7931   45.0920 C   0  0  0  0  0  0
   50.2042   19.8926   45.3459 C   0  0  0  0  0  0
   51.3098   20.1042   44.3060 C   0  0  0  0  0  0
   51.3134   24.8923   50.0638 C   0  0  0  0  0  0
   50.8698   24.0740   37.9204 C   0  0  0  0  0  0
   51.2303   25.1259   38.7977 C   0  0  0  0  0  0
   51.0102   25.0110   40.1842 C   0  0  0  0  0  0
   50.4353   23.8393   40.7283 C   0  0  0  0  0  0
   50.1086   22.7761   39.8561 C   0  0  0  0  0  0
   50.3247   22.8959   38.4677 C   0  0  0  0  0  0
   52.3158   24.2717   36.0100 C   0  0  0  0  0  0
   52.6748   23.0183   35.2054 C   0  0  0  0  0  0
   51.8851   20.8019   34.4012 C   0  0  0  0  0  0
   51.4785   19.6272   35.3057 C   0  0  0  0  0  0
   50.6085   25.6832   42.8379 H   0  0  0  0  0  0
   50.8826   22.2139   35.6052 H   0  0  0  0  0  0
   52.2598   20.2255   37.0667 H   0  0  0  0  0  0
   52.2657   18.6061   36.8575 H   0  0  0  0  0  0
  1  3  2  0  0  0
  1  5  1  0  0  0
  1 13  1  0  0  0
  2  4  1  0  0  0
  2 10  1  0  0  0
  2 18  1  0  0  0
  4  5  1  0  0  0
  4  6  2  0  0  0
  5 15  1  0  0  0
  7  8  2  0  0  0
  7 11  1  0  0  0
  7 25  1  0  0  0
  8 10  1  0  0  0
  9 22  1  0  0  0
  9 28  1  0  0  0
 10 13  2  0  0  0
 11 13  1  0  0  0
 12 29  2  0  0  0
 14 29  1  0  0  0
 14 30  1  0  0  0
 15 17  1  0  0  0
 16 31  1  0  0  0
 17 21  1  0  0  0
 18 19  1  0  0  0
 19 20  1  0  0  0
 22 23  2  0  0  0
 22 27  1  0  0  0
 23 24  1  0  0  0
 24 25  2  0  0  0
 25 26  1  0  0  0
 26 27  2  0  0  0
 28 29  1  0  0  0
 30 31  1  0  0  0
 11 32  1  0  0  0
 14 33  1  0  0  0
 16 34  1  0  0  0
 16 35  1  0  0  0
M  END
>  <CHROM.0>
63.36173077,67.80427798,-168.62791562,173.01602744

>  <CHROM.1>
-83.19510207,-97.92757597,-172.78850185,61.53890689,115.99347215,130.74302792
179.58533102,73.33118866,-66.03779949,-178.56196406,-66.30665081,50.72276046
23.04342234,41.75499914,-2.65907382,-1.37958589,-2.76712735

>  <Name>
XAC_3REY_CCD_neutral

>  <RI>
-1.87621e+09

>  <Rbt.Current_Directory>
/mnt/nfs/CX900004_DS117/sbdd-project/references/stage5/d021_rdock_3REY_XAC_single_shot_qualification_20260917

>  <Rbt.Executable>
rbdock - v26.09-alpha

>  <Rbt.Library>
libRbt.so (26.09, Buildalpha)

>  <Rbt.Parameter_File>
dock.prm

>  <Rbt.Receptor>
3REY_rdock.prm

>  <SCORE>
-8.3768

>  <SCORE.INTER>
-11.723

>  <SCORE.INTER.CONST>
1

>  <SCORE.INTER.POLAR>
-0.979796

>  <SCORE.INTER.REPUL>
0.00968944

>  <SCORE.INTER.ROT>
11

>  <SCORE.INTER.VDW>
-24.8401

>  <SCORE.INTER.norm>
-0.378161

>  <SCORE.INTRA>
2.63328

>  <SCORE.INTRA.DIHEDRAL>
10.7471

>  <SCORE.INTRA.DIHEDRAL.0>
8.42133

>  <SCORE.INTRA.POLAR>
-0.121366

>  <SCORE.INTRA.POLAR.0>
0

>  <SCORE.INTRA.REPUL>
0

>  <SCORE.INTRA.REPUL.0>
0

>  <SCORE.INTRA.VDW>
-2.32762

>  <SCORE.INTRA.VDW.0>
-1.06371

>  <SCORE.INTRA.norm>
0.0849446

>  <SCORE.RESTR>
0

>  <SCORE.RESTR.CAVITY>
0

>  <SCORE.RESTR.norm>
0

>  <SCORE.SYSTEM>
0.712898

>  <SCORE.SYSTEM.CONST>
0

>  <SCORE.SYSTEM.DIHEDRAL>
0.612187

>  <SCORE.SYSTEM.VDW>
0.406805

>  <SCORE.SYSTEM.norm>
0.0229967

>  <SCORE.heavy>
31

>  <SCORE.norm>
-0.270219

$$$$
XAC_3REY_CCD_neutral
  rDOCK(R)          3D
libRbt.so/26.09/alpha
 35 37  0  0  0  0  0  0  0  0999 V2000
   52.8125   26.3862   42.5044 C   0  0  0  0  0  0
   54.4024   24.0997   42.9750 N   0  0  0  0  0  0
   52.0960   27.3602   42.2429 O   0  0  0  0  0  0
   54.3975   25.1461   43.8716 C   0  0  0  0  0  0
   53.6309   26.2658   43.5936 N   0  0  0  0  0  0
   55.0849   25.0825   44.9019 O   0  0  0  0  0  0
   52.5799   23.8618   39.9187 C   0  0  0  0  0  0
   53.4419   23.2495   40.7550 N   0  0  0  0  0  0
   50.7262   21.5302   35.0668 O   0  0  0  0  0  0
   53.6026   24.1546   41.8066 C   0  0  0  0  0  0
   52.2036   25.0657   40.3997 N   0  0  0  0  0  0
   52.6024   23.7219   33.8634 O   0  0  0  0  0  0
   52.8548   25.2500   41.6047 C   0  0  0  0  0  0
   50.8005   23.4481   32.5331 N   0  0  0  0  0  0
   53.7386   27.4383   44.4919 C   0  0  0  0  0  0
   49.3103   26.3849   30.7885 N   0  0  0  0  0  0
   52.4895   27.5785   45.3844 C   0  0  0  0  0  0
   55.2556   22.9195   43.1729 C   0  0  0  0  0  0
   56.5946   23.0484   42.4257 C   0  0  0  0  0  0
   57.4800   24.1575   43.0040 C   0  0  0  0  0  0
   52.4918   28.8655   46.2147 C   0  0  0  0  0  0
   51.1808   22.1677   36.2014 C   0  0  0  0  0  0
   50.9020   23.5167   36.5309 C   0  0  0  0  0  0
   51.3693   24.0716   37.7383 C   0  0  0  0  0  0
   52.1349   23.2963   38.6394 C   0  0  0  0  0  0
   52.4427   21.9609   38.2933 C   0  0  0  0  0  0
   51.9688   21.4059   37.0867 C   0  0  0  0  0  0
   51.5507   21.5593   33.9052 C   0  0  0  0  0  0
   51.6934   23.0087   33.4297 C   0  0  0  0  0  0
   50.7554   24.7898   31.9701 C   0  0  0  0  0  0
   49.3539   25.0736   31.4059 C   0  0  0  0  0  0
   51.5702   25.7057   39.9647 H   0  0  0  0  0  0
   50.1055   22.7994   32.2240 H   0  0  0  0  0  0
   48.4342   26.5051   30.3222 H   0  0  0  0  0  0
   49.4121   27.0884   31.4926 H   0  0  0  0  0  0
  1  3  2  0  0  0
  1  5  1  0  0  0
  1 13  1  0  0  0
  2  4  1  0  0  0
  2 10  1  0  0  0
  2 18  1  0  0  0
  4  5  1  0  0  0
  4  6  2  0  0  0
  5 15  1  0  0  0
  7  8  2  0  0  0
  7 11  1  0  0  0
  7 25  1  0  0  0
  8 10  1  0  0  0
  9 22  1  0  0  0
  9 28  1  0  0  0
 10 13  2  0  0  0
 11 13  1  0  0  0
 12 29  2  0  0  0
 14 29  1  0  0  0
 14 30  1  0  0  0
 15 17  1  0  0  0
 16 31  1  0  0  0
 17 21  1  0  0  0
 18 19  1  0  0  0
 19 20  1  0  0  0
 22 23  2  0  0  0
 22 27  1  0  0  0
 23 24  1  0  0  0
 24 25  2  0  0  0
 25 26  1  0  0  0
 26 27  2  0  0  0
 28 29  1  0  0  0
 30 31  1  0  0  0
 11 32  1  0  0  0
 14 33  1  0  0  0
 16 34  1  0  0  0
 16 35  1  0  0  0
M  END
>  <CHROM.0>
63.00359208,68.42866669,5.76346314,-171.67455399

>  <CHROM.1>
-94.36640462,76.15893482,-171.66478437,91.36153868,-63.94644950,-159.41576668
-173.54440241,172.53488844,66.91839930,89.04602396,-177.47755680,52.63696022
24.42806245,39.21467820,1.04762871,-0.94099594,0.93920005

>  <Name>
XAC_3REY_CCD_neutral

>  <RI>
-1.87621e+09

>  <Rbt.Current_Directory>
/mnt/nfs/CX900004_DS117/sbdd-project/references/stage5/d021_rdock_3REY_XAC_single_shot_qualification_20260917

>  <Rbt.Executable>
rbdock - v26.09-alpha

>  <Rbt.Library>
libRbt.so (26.09, Buildalpha)

>  <Rbt.Parameter_File>
dock.prm

>  <Rbt.Receptor>
3REY_rdock.prm

>  <SCORE>
-3.53497

>  <SCORE.INTER>
-4.54168

>  <SCORE.INTER.CONST>
1

>  <SCORE.INTER.POLAR>
-0.756413

>  <SCORE.INTER.REPUL>
0

>  <SCORE.INTER.ROT>
11

>  <SCORE.INTER.VDW>
-18.3699

>  <SCORE.INTER.norm>
-0.146506

>  <SCORE.INTRA>
0.531572

>  <SCORE.INTRA.DIHEDRAL>
4.50189

>  <SCORE.INTRA.DIHEDRAL.0>
8.42133

>  <SCORE.INTRA.POLAR>
0

>  <SCORE.INTRA.POLAR.0>
0

>  <SCORE.INTRA.REPUL>
0

>  <SCORE.INTRA.REPUL.0>
0

>  <SCORE.INTRA.VDW>
-1.71937

>  <SCORE.INTRA.VDW.0>
-1.06371

>  <SCORE.INTRA.norm>
0.0171475

>  <SCORE.RESTR>
0

>  <SCORE.RESTR.CAVITY>
0

>  <SCORE.RESTR.norm>
0

>  <SCORE.SYSTEM>
0.475133

>  <SCORE.SYSTEM.CONST>
0

>  <SCORE.SYSTEM.DIHEDRAL>
0.542741

>  <SCORE.SYSTEM.VDW>
0.203763

>  <SCORE.SYSTEM.norm>
0.0153269

>  <SCORE.heavy>
31

>  <SCORE.norm>
-0.114031

$$$$
XAC_3REY_CCD_neutral
  rDOCK(R)          3D
libRbt.so/26.09/alpha
 35 37  0  0  0  0  0  0  0  0999 V2000
   50.5936   26.4740   46.1181 C   0  0  0  0  0  0
   49.6509   23.8215   46.3477 N   0  0  0  0  0  0
   51.0151   27.6255   45.9539 O   0  0  0  0  0  0
   49.7223   24.6378   47.4556 C   0  0  0  0  0  0
   50.2196   25.9227   47.3127 N   0  0  0  0  0  0
   49.3582   24.2133   48.5626 O   0  0  0  0  0  0
   50.5726   24.6336   42.9995 C   0  0  0  0  0  0
   50.0781   23.6878   43.8231 N   0  0  0  0  0  0
   51.7614   23.8324   37.4897 O   0  0  0  0  0  0
   50.0436   24.3057   45.0753 C   0  0  0  0  0  0
   50.8268   25.7790   43.6672 N   0  0  0  0  0  0
   50.1607   21.0682   37.3907 O   0  0  0  0  0  0
   50.4869   25.5691   44.9903 C   0  0  0  0  0  0
   51.9009   21.1422   35.9562 N   0  0  0  0  0  0
   50.4207   26.7433   48.5290 C   0  0  0  0  0  0
   53.8737   18.0222   36.4706 N   0  0  0  0  0  0
   49.1155   27.4441   48.9555 C   0  0  0  0  0  0
   49.2082   22.4236   46.4480 C   0  0  0  0  0  0
   50.1837   21.5717   47.2791 C   0  0  0  0  0  0
   51.5797   21.5048   46.6505 C   0  0  0  0  0  0
   48.5793   28.4047   47.8899 C   0  0  0  0  0  0
   51.4049   23.9803   38.8132 C   0  0  0  0  0  0
   50.7305   22.9971   39.5778 C   0  0  0  0  0  0
   50.4488   23.2165   40.9403 C   0  0  0  0  0  0
   50.8239   24.4266   41.5684 C   0  0  0  0  0  0
   51.4651   25.4214   40.7957 C   0  0  0  0  0  0
   51.7512   25.1970   39.4333 C   0  0  0  0  0  0
   50.8152   23.2440   36.6018 C   0  0  0  0  0  0
   50.9348   21.7188   36.6833 C   0  0  0  0  0  0
   52.1874   19.7158   35.9076 C   0  0  0  0  0  0
   53.5569   19.4351   36.5471 C   0  0  0  0  0  0
   51.1930   26.6236   43.2765 H   0  0  0  0  0  0
   52.4744   21.7426   35.3994 H   0  0  0  0  0  0
   53.1469   17.4931   36.9079 H   0  0  0  0  0  0
   53.9528   17.7498   35.5111 H   0  0  0  0  0  0
  1  3  2  0  0  0
  1  5  1  0  0  0
  1 13  1  0  0  0
  2  4  1  0  0  0
  2 10  1  0  0  0
  2 18  1  0  0  0
  4  5  1  0  0  0
  4  6  2  0  0  0
  5 15  1  0  0  0
  7  8  2  0  0  0
  7 11  1  0  0  0
  7 25  1  0  0  0
  8 10  1  0  0  0
  9 22  1  0  0  0
  9 28  1  0  0  0
 10 13  2  0  0  0
 11 13  1  0  0  0
 12 29  2  0  0  0
 14 29  1  0  0  0
 14 30  1  0  0  0
 15 17  1  0  0  0
 16 31  1  0  0  0
 17 21  1  0  0  0
 18 19  1  0  0  0
 19 20  1  0  0  0
 22 23  2  0  0  0
 22 27  1  0  0  0
 23 24  1  0  0  0
 24 25  2  0  0  0
 25 26  1  0  0  0
 26 27  2  0  0  0
 28 29  1  0  0  0
 30 31  1  0  0  0
 11 32  1  0  0  0
 14 33  1  0  0  0
 16 34  1  0  0  0
 16 35  1  0  0  0
M  END
>  <CHROM.0>
-55.77887032,-59.86594821,13.08765798,-173.64314851

>  <CHROM.1>
-64.97539025,98.57112182,5.15897556,42.78207499,-84.66009632,-112.86999913
-61.21480880,-56.59304848,-62.04347541,97.89610249,-178.32143860,50.77237505
23.76891583,42.63455545,2.79755964,-1.37557557,2.38829442

>  <Name>
XAC_3REY_CCD_neutral

>  <RI>
-1.87621e+09

>  <Rbt.Current_Directory>
/mnt/nfs/CX900004_DS117/sbdd-project/references/stage5/d021_rdock_3REY_XAC_single_shot_qualification_20260917

>  <Rbt.Executable>
rbdock - v26.09-alpha

>  <Rbt.Library>
libRbt.so (26.09, Buildalpha)

>  <Rbt.Parameter_File>
dock.prm

>  <Rbt.Receptor>
3REY_rdock.prm

>  <SCORE>
-11.7887

>  <SCORE.INTER>
-13.1932

>  <SCORE.INTER.CONST>
1

>  <SCORE.INTER.POLAR>
-1.46842

>  <SCORE.INTER.REPUL>
0

>  <SCORE.INTER.ROT>
11

>  <SCORE.INTER.VDW>
-24.6005

>  <SCORE.INTER.norm>
-0.425586

>  <SCORE.INTRA>
0.688332

>  <SCORE.INTRA.DIHEDRAL>
3.75745

>  <SCORE.INTRA.DIHEDRAL.0>
8.42133

>  <SCORE.INTRA.POLAR>
0

>  <SCORE.INTRA.POLAR.0>
0

>  <SCORE.INTRA.REPUL>
0

>  <SCORE.INTRA.REPUL.0>
0

>  <SCORE.INTRA.VDW>
-1.19039

>  <SCORE.INTRA.VDW.0>
-1.06371

>  <SCORE.INTRA.norm>
0.0222042

>  <SCORE.RESTR>
0

>  <SCORE.RESTR.CAVITY>
0

>  <SCORE.RESTR.norm>
0

>  <SCORE.SYSTEM>
0.716157

>  <SCORE.SYSTEM.CONST>
0

>  <SCORE.SYSTEM.DIHEDRAL>
0.396418

>  <SCORE.SYSTEM.VDW>
0.517948

>  <SCORE.SYSTEM.norm>
0.0231018

>  <SCORE.heavy>
31

>  <SCORE.norm>
-0.38028

$$$$
XAC_3REY_CCD_neutral
  rDOCK(R)          3D
libRbt.so/26.09/alpha
 35 37  0  0  0  0  0  0  0  0999 V2000
   50.0903   25.0260   45.8946 C   0  0  0  0  0  0
   49.3697   22.3315   45.4499 N   0  0  0  0  0  0
   50.4129   26.2131   46.0252 O   0  0  0  0  0  0
   49.4203   22.8410   46.7293 C   0  0  0  0  0  0
   49.8087   24.1578   46.9134 N   0  0  0  0  0  0
   49.1349   22.1182   47.6959 O   0  0  0  0  0  0
   50.0910   24.0479   42.4081 C   0  0  0  0  0  0
   49.7057   22.8841   42.9689 N   0  0  0  0  0  0
   51.1158   24.7252   36.8489 O   0  0  0  0  0  0
   49.6722   23.1565   44.3384 C   0  0  0  0  0  0
   50.2804   25.0024   43.3436 N   0  0  0  0  0  0
   52.3624   21.8207   36.4050 O   0  0  0  0  0  0
   50.0108   24.4332   44.5738 C   0  0  0  0  0  0
   53.1455   22.8449   38.2568 N   0  0  0  0  0  0
   49.9924   24.6549   48.2963 C   0  0  0  0  0  0
   53.0053   20.5288   41.1734 N   0  0  0  0  0  0
   51.3641   24.2401   48.8644 C   0  0  0  0  0  0
   49.0429   20.9215   45.1946 C   0  0  0  0  0  0
   50.2662   20.0067   45.3812 C   0  0  0  0  0  0
   51.3916   20.3302   44.3926 C   0  0  0  0  0  0
   51.5959   24.7464   50.2912 C   0  0  0  0  0  0
   50.7913   24.5340   38.1750 C   0  0  0  0  0  0
   49.9364   23.5110   38.6532 C   0  0  0  0  0  0
   49.6992   23.3611   40.0335 C   0  0  0  0  0  0
   50.3011   24.2355   40.9676 C   0  0  0  0  0  0
   51.1257   25.2781   40.4871 C   0  0  0  0  0  0
   51.3662   25.4224   39.1051 C   0  0  0  0  0  0
   52.3672   24.2258   36.3858 C   0  0  0  0  0  0
   52.6252   22.8564   37.0225 C   0  0  0  0  0  0
   53.4495   21.6541   39.0368 C   0  0  0  0  0  0
   52.6857   21.6930   40.3704 C   0  0  0  0  0  0
   50.5631   25.9471   43.1772 H   0  0  0  0  0  0
   53.3417   23.7298   38.6786 H   0  0  0  0  0  0
   53.9042   20.6500   41.5938 H   0  0  0  0  0  0
   52.3151   20.4179   41.8893 H   0  0  0  0  0  0
  1  3  2  0  0  0
  1  5  1  0  0  0
  1 13  1  0  0  0
  2  4  1  0  0  0
  2 10  1  0  0  0
  2 18  1  0  0  0
  4  5  1  0  0  0
  4  6  2  0  0  0
  5 15  1  0  0  0
  7  8  2  0  0  0
  7 11  1  0  0  0
  7 25  1  0  0  0
  8 10  1  0  0  0
  9 22  1  0  0  0
  9 28  1  0  0  0
 10 13  2  0  0  0
 11 13  1  0  0  0
 12 29  2  0  0  0
 14 29  1  0  0  0
 14 30  1  0  0  0
 15 17  1  0  0  0
 16 31  1  0  0  0
 17 21  1  0  0  0
 18 19  1  0  0  0
 19 20  1  0  0  0
 22 23  2  0  0  0
 22 27  1  0  0  0
 23 24  1  0  0  0
 24 25  2  0  0  0
 25 26  1  0  0  0
 26 27  2  0  0  0
 28 29  1  0  0  0
 30 31  1  0  0  0
 11 32  1  0  0  0
 14 33  1  0  0  0
 16 34  1  0  0  0
 16 35  1  0  0  0
M  END
>  <CHROM.0>
63.30663690,-179.27994916,16.37171486,2.55955617

>  <CHROM.1>
-81.46972898,-96.63191175,21.26124880,-99.48724764,40.13073493,-122.24909044
179.53207801,77.17469610,-62.58296039,97.37636326,-178.54629677,50.86429178
23.31510522,42.66170840,2.36716789,-1.31283779,2.31890311

>  <Name>
XAC_3REY_CCD_neutral

>  <RI>
-1.87621e+09

>  <Rbt.Current_Directory>
/mnt/nfs/CX900004_DS117/sbdd-project/references/stage5/d021_rdock_3REY_XAC_single_shot_qualification_20260917

>  <Rbt.Executable>
rbdock - v26.09-alpha

>  <Rbt.Library>
libRbt.so (26.09, Buildalpha)

>  <Rbt.Parameter_File>
dock.prm

>  <Rbt.Receptor>
3REY_rdock.prm

>  <SCORE>
-7.08241

>  <SCORE.INTER>
-7.81278

>  <SCORE.INTER.CONST>
1

>  <SCORE.INTER.POLAR>
0

>  <SCORE.INTER.REPUL>
0.000169213

>  <SCORE.INTER.ROT>
11

>  <SCORE.INTER.VDW>
-24.2136

>  <SCORE.INTER.norm>
-0.252025

>  <SCORE.INTRA>
0.471506

>  <SCORE.INTRA.DIHEDRAL>
7.77052

>  <SCORE.INTRA.DIHEDRAL.0>
8.42133

>  <SCORE.INTRA.POLAR>
0

>  <SCORE.INTRA.POLAR.0>
0

>  <SCORE.INTRA.REPUL>
0

>  <SCORE.INTRA.REPUL.0>
0

>  <SCORE.INTRA.VDW>
-3.41375

>  <SCORE.INTRA.VDW.0>
-1.06371

>  <SCORE.INTRA.norm>
0.0152099

>  <SCORE.RESTR>
0

>  <SCORE.RESTR.CAVITY>
0

>  <SCORE.RESTR.norm>
0

>  <SCORE.SYSTEM>
0.258868

>  <SCORE.SYSTEM.CONST>
0

>  <SCORE.SYSTEM.DIHEDRAL>
0.45063

>  <SCORE.SYSTEM.VDW>
0.0335529

>  <SCORE.SYSTEM.norm>
0.00835058

>  <SCORE.heavy>
31

>  <SCORE.norm>
-0.228465

$$$$
XAC_3REY_CCD_neutral
  rDOCK(R)          3D
libRbt.so/26.09/alpha
 35 37  0  0  0  0  0  0  0  0999 V2000
   50.7698   25.5252   44.6526 C   0  0  0  0  0  0
   49.8866   22.8521   44.4251 N   0  0  0  0  0  0
   51.1681   26.6959   44.6882 O   0  0  0  0  0  0
   49.8931   23.4859   45.6487 C   0  0  0  0  0  0
   50.3628   24.7865   45.7294 N   0  0  0  0  0  0
   49.4962   22.8863   46.6592 O   0  0  0  0  0  0
   50.9196   24.1963   41.2874 C   0  0  0  0  0  0
   50.4170   23.1239   41.9313 N   0  0  0  0  0  0
   51.9401   24.2024   35.6863 O   0  0  0  0  0  0
   50.3171   23.5371   43.2618 C   0  0  0  0  0  0
   51.1179   25.2275   42.1357 N   0  0  0  0  0  0
   50.3684   24.1267   33.0741 O   0  0  0  0  0  0
   50.7311   24.8064   43.3940 C   0  0  0  0  0  0
   52.2645   22.9646   32.6922 N   0  0  0  0  0  0
   50.4944   25.4099   47.0663 C   0  0  0  0  0  0
   52.6625   24.8855   29.5255 N   0  0  0  0  0  0
   49.1666   26.0472   47.5217 C   0  0  0  0  0  0
   49.4759   21.4477   44.2871 C   0  0  0  0  0  0
   50.6683   20.5313   43.9603 C   0  0  0  0  0  0
   51.6864   20.4701   45.1040 C   0  0  0  0  0  0
   48.7312   27.2163   46.6333 C   0  0  0  0  0  0
   51.7377   24.2711   37.0482 C   0  0  0  0  0  0
   51.6197   25.4764   37.7827 C   0  0  0  0  0  0
   51.3648   25.4504   39.1678 C   0  0  0  0  0  0
   51.2328   24.2210   39.8537 C   0  0  0  0  0  0
   51.3861   23.0187   39.1264 C   0  0  0  0  0  0
   51.6354   23.0474   37.7388 C   0  0  0  0  0  0
   51.3986   23.0879   34.9831 C   0  0  0  0  0  0
   51.3007   23.4359   33.4943 C   0  0  0  0  0  0
   52.3448   23.1701   31.2533 C   0  0  0  0  0  0
   52.7019   24.6349   30.9531 C   0  0  0  0  0  0
   51.4777   26.1296   41.8976 H   0  0  0  0  0  0
   52.9907   22.4254   33.1179 H   0  0  0  0  0  0
   51.7172   24.8359   29.2040 H   0  0  0  0  0  0
   53.0313   25.7962   29.3366 H   0  0  0  0  0  0
  1  3  2  0  0  0
  1  5  1  0  0  0
  1 13  1  0  0  0
  2  4  1  0  0  0
  2 10  1  0  0  0
  2 18  1  0  0  0
  4  5  1  0  0  0
  4  6  2  0  0  0
  5 15  1  0  0  0
  7  8  2  0  0  0
  7 11  1  0  0  0
  7 25  1  0  0  0
  8 10  1  0  0  0
  9 22  1  0  0  0
  9 28  1  0  0  0
 10 13  2  0  0  0
 11 13  1  0  0  0
 12 29  2  0  0  0
 14 29  1  0  0  0
 14 30  1  0  0  0
 15 17  1  0  0  0
 16 31  1  0  0  0
 17 21  1  0  0  0
 18 19  1  0  0  0
 19 20  1  0  0  0
 22 23  2  0  0  0
 22 27  1  0  0  0
 23 24  1  0  0  0
 24 25  2  0  0  0
 25 26  1  0  0  0
 26 27  2  0  0  0
 28 29  1  0  0  0
 30 31  1  0  0  0
 11 32  1  0  0  0
 14 33  1  0  0  0
 16 34  1  0  0  0
 16 35  1  0  0  0
M  END
>  <CHROM.0>
65.05784599,-62.71422756,179.81119167,-178.60361868

>  <CHROM.1>
-109.47721501,96.87874023,160.73384226,-149.01744313,160.41599636,70.97790579
-64.50928934,68.66881318,65.26782727,-79.55380408,-174.65045949,50.94727438
24.01407967,40.29237935,2.89800275,-1.42151317,2.87370379

>  <Name>
XAC_3REY_CCD_neutral

>  <RI>
-1.87621e+09

>  <Rbt.Current_Directory>
/mnt/nfs/CX900004_DS117/sbdd-project/references/stage5/d021_rdock_3REY_XAC_single_shot_qualification_20260917

>  <Rbt.Executable>
rbdock - v26.09-alpha

>  <Rbt.Library>
libRbt.so (26.09, Buildalpha)

>  <Rbt.Parameter_File>
dock.prm

>  <Rbt.Receptor>
3REY_rdock.prm

>  <SCORE>
-9.25439

>  <SCORE.INTER>
-11.4344

>  <SCORE.INTER.CONST>
1

>  <SCORE.INTER.POLAR>
-1.06066

>  <SCORE.INTER.REPUL>
0

>  <SCORE.INTER.ROT>
11

>  <SCORE.INTER.VDW>
-24.2281

>  <SCORE.INTER.norm>
-0.36885

>  <SCORE.INTRA>
2.15382

>  <SCORE.INTRA.DIHEDRAL>
3.61593

>  <SCORE.INTRA.DIHEDRAL.0>
8.42133

>  <SCORE.INTRA.POLAR>
0

>  <SCORE.INTRA.POLAR.0>
0

>  <SCORE.INTRA.REPUL>
0

>  <SCORE.INTRA.REPUL.0>
0

>  <SCORE.INTRA.VDW>
0.345861

>  <SCORE.INTRA.VDW.0>
-1.06371

>  <SCORE.INTRA.norm>
0.0694782

>  <SCORE.RESTR>
0

>  <SCORE.RESTR.CAVITY>
0

>  <SCORE.RESTR.norm>
0

>  <SCORE.SYSTEM>
0.026149

>  <SCORE.SYSTEM.CONST>
0

>  <SCORE.SYSTEM.DIHEDRAL>
0.168545

>  <SCORE.SYSTEM.VDW>
-0.0581237

>  <SCORE.SYSTEM.norm>
0.000843518

>  <SCORE.heavy>
31

>  <SCORE.norm>
-0.298529

$$$$
XAC_3REY_CCD_neutral
  rDOCK(R)          3D
libRbt.so/26.09/alpha
 35 37  0  0  0  0  0  0  0  0999 V2000
   48.5595   20.8778   35.8029 C   0  0  0  0  0  0
   50.6211   22.5898   34.9106 N   0  0  0  0  0  0
   47.6625   20.1543   36.2528 O   0  0  0  0  0  0
   50.0272   21.6979   34.0442 C   0  0  0  0  0  0
   49.0414   20.8508   34.5231 N   0  0  0  0  0  0
   50.3881   21.6520   32.8586 O   0  0  0  0  0  0
   49.8870   23.0613   38.3687 C   0  0  0  0  0  0
   50.6394   23.4584   37.3229 N   0  0  0  0  0  0
   50.4772   24.9535   43.7057 O   0  0  0  0  0  0
   50.1993   22.6645   36.2613 C   0  0  0  0  0  0
   49.0190   22.0928   38.0067 N   0  0  0  0  0  0
   51.9280   26.8376   46.1894 O   0  0  0  0  0  0
   49.2178   21.8425   36.6621 C   0  0  0  0  0  0
   49.7133   26.5578   45.8606 N   0  0  0  0  0  0
   48.5072   19.8048   33.6209 C   0  0  0  0  0  0
   47.0554   27.6869   46.4487 N   0  0  0  0  0  0
   47.6183   20.4145   32.5188 C   0  0  0  0  0  0
   51.7270   23.4586   34.4836 C   0  0  0  0  0  0
   53.0881   22.9393   34.9792 C   0  0  0  0  0  0
   54.2525   23.8190   34.5115 C   0  0  0  0  0  0
   46.3943   21.1462   33.0774 C   0  0  0  0  0  0
   50.3540   24.5719   42.3868 C   0  0  0  0  0  0
   51.1328   25.0920   41.3242 C   0  0  0  0  0  0
   50.9709   24.6069   40.0118 C   0  0  0  0  0  0
   50.0204   23.5993   39.7277 C   0  0  0  0  0  0
   49.2190   23.1061   40.7823 C   0  0  0  0  0  0
   49.3871   23.5893   42.0964 C   0  0  0  0  0  0
   51.2465   26.1165   43.9985 C   0  0  0  0  0  0
   50.9880   26.5344   45.4496 C   0  0  0  0  0  0
   49.2610   26.9110   47.1985 C   0  0  0  0  0  0
   48.2746   28.0876   47.1237 C   0  0  0  0  0  0
   48.3544   21.6404   38.6016 H   0  0  0  0  0  0
   49.0124   26.3114   45.1916 H   0  0  0  0  0  0
   47.2735   27.3708   45.5257 H   0  0  0  0  0  0
   46.6194   26.9457   46.9602 H   0  0  0  0  0  0
  1  3  2  0  0  0
  1  5  1  0  0  0
  1 13  1  0  0  0
  2  4  1  0  0  0
  2 10  1  0  0  0
  2 18  1  0  0  0
  4  5  1  0  0  0
  4  6  2  0  0  0
  5 15  1  0  0  0
  7  8  2  0  0  0
  7 11  1  0  0  0
  7 25  1  0  0  0
  8 10  1  0  0  0
  9 22  1  0  0  0
  9 28  1  0  0  0
 10 13  2  0  0  0
 11 13  1  0  0  0
 12 29  2  0  0  0
 14 29  1  0  0  0
 14 30  1  0  0  0
 15 17  1  0  0  0
 16 31  1  0  0  0
 17 21  1  0  0  0
 18 19  1  0  0  0
 19 20  1  0  0  0
 22 23  2  0  0  0
 22 27  1  0  0  0
 23 24  1  0  0  0
 24 25  2  0  0  0
 25 26  1  0  0  0
 26 27  2  0  0  0
 28 29  1  0  0  0
 30 31  1  0  0  0
 11 32  1  0  0  0
 14 33  1  0  0  0
 16 34  1  0  0  0
 16 35  1  0  0  0
M  END
>  <CHROM.0>
-54.92659086,179.28693699,-177.16399322,8.96463463

>  <CHROM.1>
-102.42944872,110.60840960,0.66680807,12.53560688,167.13905613,122.50956841
-61.22066254,-59.04677102,178.62410213,134.34776721,66.36963892,49.88287964
23.59636477,39.08251281,1.58889010,-0.34829475,-1.98648060

>  <Name>
XAC_3REY_CCD_neutral

>  <RI>
-1.87621e+09

>  <Rbt.Current_Directory>
/mnt/nfs/CX900004_DS117/sbdd-project/references/stage5/d021_rdock_3REY_XAC_single_shot_qualification_20260917

>  <Rbt.Executable>
rbdock - v26.09-alpha

>  <Rbt.Library>
libRbt.so (26.09, Buildalpha)

>  <Rbt.Parameter_File>
dock.prm

>  <Rbt.Receptor>
3REY_rdock.prm

>  <SCORE>
-8.74958

>  <SCORE.INTER>
-9.74036

>  <SCORE.INTER.CONST>
1

>  <SCORE.INTER.POLAR>
0

>  <SCORE.INTER.REPUL>
0

>  <SCORE.INTER.ROT>
11

>  <SCORE.INTER.VDW>
-26.1404

>  <SCORE.INTER.norm>
-0.314205

>  <SCORE.INTRA>
-0.302165

>  <SCORE.INTRA.DIHEDRAL>
0.0833286

>  <SCORE.INTRA.DIHEDRAL.0>
8.42133

>  <SCORE.INTRA.POLAR>
0

>  <SCORE.INTRA.POLAR.0>
0

>  <SCORE.INTRA.REPUL>
0

>  <SCORE.INTRA.REPUL.0>
0

>  <SCORE.INTRA.VDW>
-0.343829

>  <SCORE.INTRA.VDW.0>
-1.06371

>  <SCORE.INTRA.norm>
-0.00974726

>  <SCORE.RESTR>
0

>  <SCORE.RESTR.CAVITY>
0

>  <SCORE.RESTR.norm>
0

>  <SCORE.SYSTEM>
1.29294

>  <SCORE.SYSTEM.CONST>
0

>  <SCORE.SYSTEM.DIHEDRAL>
0.261535

>  <SCORE.SYSTEM.VDW>
1.16218

>  <SCORE.SYSTEM.norm>
0.0417079

>  <SCORE.heavy>
31

>  <SCORE.norm>
-0.282245

$$$$
XAC_3REY_CCD_neutral
  rDOCK(R)          3D
libRbt.so/26.09/alpha
 35 37  0  0  0  0  0  0  0  0999 V2000
   50.6088   25.5575   44.6528 C   0  0  0  0  0  0
   50.2996   22.7514   44.5669 N   0  0  0  0  0  0
   50.7538   26.7858   44.6261 O   0  0  0  0  0  0
   50.2041   23.4303   45.7622 C   0  0  0  0  0  0
   50.3929   24.8025   45.7727 N   0  0  0  0  0  0
   49.9673   22.8102   46.8099 O   0  0  0  0  0  0
   50.9485   24.1298   41.3423 C   0  0  0  0  0  0
   50.6982   23.0083   42.0472 N   0  0  0  0  0  0
   52.1678   24.3051   35.7839 O   0  0  0  0  0  0
   50.5475   23.4547   43.3621 C   0  0  0  0  0  0
   50.9478   25.2190   42.1399 N   0  0  0  0  0  0
   54.2327   23.8396   33.5223 O   0  0  0  0  0  0
   50.6897   24.7871   43.4271 C   0  0  0  0  0  0
   52.1708   23.4623   32.6871 N   0  0  0  0  0  0
   50.4247   25.5028   47.0773 C   0  0  0  0  0  0
   52.8185   25.6851   29.7674 N   0  0  0  0  0  0
   49.1572   26.3545   47.2883 C   0  0  0  0  0  0
   50.1889   21.2873   44.5015 C   0  0  0  0  0  0
   48.7222   20.8219   44.5213 C   0  0  0  0  0  0
   48.5567   19.3947   43.9883 C   0  0  0  0  0  0
   49.2090   27.1926   48.5692 C   0  0  0  0  0  0
   51.8313   24.1916   37.1159 C   0  0  0  0  0  0
   51.6930   22.9632   37.8073 C   0  0  0  0  0  0
   51.3930   22.9443   39.1835 C   0  0  0  0  0  0
   51.2134   24.1507   39.8988 C   0  0  0  0  0  0
   51.3164   25.3752   39.2004 C   0  0  0  0  0  0
   51.6226   25.3915   37.8240 C   0  0  0  0  0  0
   52.5511   23.1237   35.0858 C   0  0  0  0  0  0
   53.0559   23.5088   33.6915 C   0  0  0  0  0  0
   52.4465   23.8021   31.2987 C   0  0  0  0  0  0
   52.4603   25.3297   31.1268 C   0  0  0  0  0  0
   51.1046   26.1639   41.8523 H   0  0  0  0  0  0
   51.2412   23.1694   32.9098 H   0  0  0  0  0  0
   52.0632   25.4580   29.1531 H   0  0  0  0  0  0
   53.0048   26.6669   29.7175 H   0  0  0  0  0  0
  1  3  2  0  0  0
  1  5  1  0  0  0
  1 13  1  0  0  0
  2  4  1  0  0  0
  2 10  1  0  0  0
  2 18  1  0  0  0
  4  5  1  0  0  0
  4  6  2  0  0  0
  5 15  1  0  0  0
  7  8  2  0  0  0
  7 11  1  0  0  0
  7 25  1  0  0  0
  8 10  1  0  0  0
  9 22  1  0  0  0
  9 28  1  0  0  0
 10 13  2  0  0  0
 11 13  1  0  0  0
 12 29  2  0  0  0
 14 29  1  0  0  0
 14 30  1  0  0  0
 15 17  1  0  0  0
 16 31  1  0  0  0
 17 21  1  0  0  0
 18 19  1  0  0  0
 19 20  1  0  0  0
 22 23  2  0  0  0
 22 27  1  0  0  0
 23 24  1  0  0  0
 24 25  2  0  0  0
 25 26  1  0  0  0
 26 27  2  0  0  0
 28 29  1  0  0  0
 30 31  1  0  0  0
 11 32  1  0  0  0
 14 33  1  0  0  0
 16 34  1  0  0  0
 16 35  1  0  0  0
M  END
>  <CHROM.0>
62.63680936,67.87088563,3.17796250,-163.58777815

>  <CHROM.1>
81.01008539,73.91433825,-8.35754054,-7.45198506,-172.55160819,-78.33864206
-174.84115616,71.45552630,160.62651833,85.52236760,176.33293835,51.07741397
24.05483855,40.41459822,-2.49304700,-1.30719353,-2.47147023

>  <Name>
XAC_3REY_CCD_neutral

>  <RI>
-1.87621e+09

>  <Rbt.Current_Directory>
/mnt/nfs/CX900004_DS117/sbdd-project/references/stage5/d021_rdock_3REY_XAC_single_shot_qualification_20260917

>  <Rbt.Executable>
rbdock - v26.09-alpha

>  <Rbt.Library>
libRbt.so (26.09, Buildalpha)

>  <Rbt.Parameter_File>
dock.prm

>  <Rbt.Receptor>
3REY_rdock.prm

>  <SCORE>
-6.85464

>  <SCORE.INTER>
-7.44281

>  <SCORE.INTER.CONST>
1

>  <SCORE.INTER.POLAR>
0

>  <SCORE.INTER.REPUL>
0

>  <SCORE.INTER.ROT>
11

>  <SCORE.INTER.VDW>
-23.8428

>  <SCORE.INTER.norm>
-0.240091

>  <SCORE.INTRA>
0.0804618

>  <SCORE.INTRA.DIHEDRAL>
1.02129

>  <SCORE.INTRA.DIHEDRAL.0>
8.42133

>  <SCORE.INTRA.POLAR>
0

>  <SCORE.INTRA.POLAR.0>
0

>  <SCORE.INTRA.REPUL>
0

>  <SCORE.INTRA.REPUL.0>
0

>  <SCORE.INTRA.VDW>
-0.430181

>  <SCORE.INTRA.VDW.0>
-1.06371

>  <SCORE.INTRA.norm>
0.00259554

>  <SCORE.RESTR>
0.00529859

>  <SCORE.RESTR.CAVITY>
0.00529859

>  <SCORE.RESTR.norm>
0.000170922

>  <SCORE.SYSTEM>
0.502406

>  <SCORE.SYSTEM.CONST>
0

>  <SCORE.SYSTEM.DIHEDRAL>
0.738822

>  <SCORE.SYSTEM.VDW>
0.132994

>  <SCORE.SYSTEM.norm>
0.0162066

>  <SCORE.heavy>
31

>  <SCORE.norm>
-0.221118

$$$$
XAC_3REY_CCD_neutral
  rDOCK(R)          3D
libRbt.so/26.09/alpha
 35 37  0  0  0  0  0  0  0  0999 V2000
   50.6538   25.4852   44.3970 C   0  0  0  0  0  0
   50.3403   22.6790   44.4601 N   0  0  0  0  0  0
   50.7963   26.7106   44.3047 O   0  0  0  0  0  0
   50.3261   23.4118   45.6270 C   0  0  0  0  0  0
   50.5147   24.7825   45.5622 N   0  0  0  0  0  0
   50.1611   22.8405   46.7154 O   0  0  0  0  0  0
   50.7682   23.9078   41.1395 C   0  0  0  0  0  0
   50.5667   22.8201   41.9100 N   0  0  0  0  0  0
   51.2072   23.6607   35.4686 O   0  0  0  0  0  0
   50.5056   23.3262   43.2105 C   0  0  0  0  0  0
   50.8214   25.0320   41.8849 N   0  0  0  0  0  0
   51.1737   21.5830   32.9144 O   0  0  0  0  0  0
   50.6515   24.6598   43.2050 C   0  0  0  0  0  0
   52.2284   23.5629   32.6716 N   0  0  0  0  0  0
   50.6349   25.5412   46.8284 C   0  0  0  0  0  0
   51.3312   26.0034   31.2015 N   0  0  0  0  0  0
   49.3022   26.2176   47.2063 C   0  0  0  0  0  0
   50.2258   21.2137   44.4690 C   0  0  0  0  0  0
   48.7584   20.7532   44.4169 C   0  0  0  0  0  0
   48.6217   19.2929   43.9725 C   0  0  0  0  0  0
   49.3978   27.0464   48.4907 C   0  0  0  0  0  0
   51.1525   23.7861   36.8403 C   0  0  0  0  0  0
   51.2267   25.0165   37.5379 C   0  0  0  0  0  0
   51.1133   25.0535   38.9414 C   0  0  0  0  0  0
   50.9343   23.8624   39.6819 C   0  0  0  0  0  0
   50.8960   22.6316   38.9880 C   0  0  0  0  0  0
   51.0039   22.5978   37.5824 C   0  0  0  0  0  0
   52.0049   22.6144   34.9219 C   0  0  0  0  0  0
   51.7687   22.5440   33.4097 C   0  0  0  0  0  0
   52.1186   23.6778   31.2247 C   0  0  0  0  0  0
   52.4085   25.1239   30.7911 C   0  0  0  0  0  0
   50.9580   25.9624   41.5446 H   0  0  0  0  0  0
   52.6862   24.3083   33.1557 H   0  0  0  0  0  0
   51.0618   25.7859   32.1393 H   0  0  0  0  0  0
   51.6409   26.9537   31.1558 H   0  0  0  0  0  0
  1  3  2  0  0  0
  1  5  1  0  0  0
  1 13  1  0  0  0
  2  4  1  0  0  0
  2 10  1  0  0  0
  2 18  1  0  0  0
  4  5  1  0  0  0
  4  6  2  0  0  0
  5 15  1  0  0  0
  7  8  2  0  0  0
  7 11  1  0  0  0
  7 25  1  0  0  0
  8 10  1  0  0  0
  9 22  1  0  0  0
  9 28  1  0  0  0
 10 13  2  0  0  0
 11 13  1  0  0  0
 12 29  2  0  0  0
 14 29  1  0  0  0
 14 30  1  0  0  0
 15 17  1  0  0  0
 16 31  1  0  0  0
 17 21  1  0  0  0
 18 19  1  0  0  0
 19 20  1  0  0  0
 22 23  2  0  0  0
 22 27  1  0  0  0
 23 24  1  0  0  0
 24 25  2  0  0  0
 25 26  1  0  0  0
 26 27  2  0  0  0
 28 29  1  0  0  0
 30 31  1  0  0  0
 11 32  1  0  0  0
 14 33  1  0  0  0
 16 34  1  0  0  0
 16 35  1  0  0  0
M  END
>  <CHROM.0>
62.91645933,-60.89640846,-7.02109074,178.89455001

>  <CHROM.1>
88.74909257,83.40683441,178.62363903,136.90643406,172.37438240,164.70524549
-178.32589590,43.80863628,161.40365277,-110.89895069,-70.30775030,50.75661090
23.79863657,40.28247413,-2.27560973,-1.36157885,-2.29716290

>  <Name>
XAC_3REY_CCD_neutral

>  <RI>
-1.87621e+09

>  <Rbt.Current_Directory>
/mnt/nfs/CX900004_DS117/sbdd-project/references/stage5/d021_rdock_3REY_XAC_single_shot_qualification_20260917

>  <Rbt.Executable>
rbdock - v26.09-alpha

>  <Rbt.Library>
libRbt.so (26.09, Buildalpha)

>  <Rbt.Parameter_File>
dock.prm

>  <Rbt.Receptor>
3REY_rdock.prm

>  <SCORE>
-7.67775

>  <SCORE.INTER>
-9.17961

>  <SCORE.INTER.CONST>
1

>  <SCORE.INTER.POLAR>
-0.681455

>  <SCORE.INTER.REPUL>
0

>  <SCORE.INTER.ROT>
11

>  <SCORE.INTER.VDW>
-23.2627

>  <SCORE.INTER.norm>
-0.296117

>  <SCORE.INTRA>
1.59087

>  <SCORE.INTRA.DIHEDRAL>
3.22132

>  <SCORE.INTRA.DIHEDRAL.0>
8.42133

>  <SCORE.INTRA.POLAR>
0

>  <SCORE.INTRA.POLAR.0>
0

>  <SCORE.INTRA.REPUL>
0

>  <SCORE.INTRA.REPUL.0>
0

>  <SCORE.INTRA.VDW>
-0.0197899

>  <SCORE.INTRA.VDW.0>
-1.06371

>  <SCORE.INTRA.norm>
0.0513184

>  <SCORE.RESTR>
0.107068

>  <SCORE.RESTR.CAVITY>
0.107068

>  <SCORE.RESTR.norm>
0.00345382

>  <SCORE.SYSTEM>
-0.196078

>  <SCORE.SYSTEM.CONST>
0

>  <SCORE.SYSTEM.DIHEDRAL>
0.123353

>  <SCORE.SYSTEM.VDW>
-0.257755

>  <SCORE.SYSTEM.norm>
-0.00632511

>  <SCORE.heavy>
31

>  <SCORE.norm>
-0.247669

$$$$
XAC_3REY_CCD_neutral
  rDOCK(R)          3D
libRbt.so/26.09/alpha
 35 37  0  0  0  0  0  0  0  0999 V2000
   48.6699   20.9256   35.7948 C   0  0  0  0  0  0
   51.0258   22.2935   35.0493 N   0  0  0  0  0  0
   47.6415   20.3557   36.1794 O   0  0  0  0  0  0
   50.4079   21.4318   34.1692 C   0  0  0  0  0  0
   49.2722   20.7529   34.5790 N   0  0  0  0  0  0
   50.8788   21.2622   33.0344 O   0  0  0  0  0  0
   50.0124   23.0806   38.3768 C   0  0  0  0  0  0
   50.9149   23.3077   37.4016 N   0  0  0  0  0  0
   50.3154   25.2256   43.6419 O   0  0  0  0  0  0
   50.4820   22.5102   36.3396 C   0  0  0  0  0  0
   49.0623   22.2117   37.9712 N   0  0  0  0  0  0
   52.3750   26.1404   46.3984 O   0  0  0  0  0  0
   49.3618   21.8505   36.6712 C   0  0  0  0  0  0
   50.1502   25.8346   46.1785 N   0  0  0  0  0  0
   48.6959   19.7287   33.6778 C   0  0  0  0  0  0
   49.3128   28.4988   46.9009 N   0  0  0  0  0  0
   47.8537   20.3745   32.5597 C   0  0  0  0  0  0
   52.2775   22.9816   34.7030 C   0  0  0  0  0  0
   52.0293   24.2034   33.8008 C   0  0  0  0  0  0
   53.3309   24.9070   33.4021 C   0  0  0  0  0  0
   46.6666   21.1793   33.0972 C   0  0  0  0  0  0
   50.2708   24.7791   42.3384 C   0  0  0  0  0  0
   51.1808   25.1675   41.3249 C   0  0  0  0  0  0
   51.0879   24.6217   40.0297 C   0  0  0  0  0  0
   50.0779   23.6841   39.7131 C   0  0  0  0  0  0
   49.1484   23.3241   40.7153 C   0  0  0  0  0  0
   49.2472   23.8674   42.0128 C   0  0  0  0  0  0
   51.5934   25.4286   44.2380 C   0  0  0  0  0  0
   51.4028   25.8312   45.7039 C   0  0  0  0  0  0
   49.7613   26.1709   47.5403 C   0  0  0  0  0  0
   48.7413   27.3210   47.5243 C   0  0  0  0  0  0
   48.2850   21.8891   38.5115 H   0  0  0  0  0  0
   49.4198   25.5848   45.5432 H   0  0  0  0  0  0
   48.5890   29.0244   46.4545 H   0  0  0  0  0  0
   49.7534   29.0646   47.5985 H   0  0  0  0  0  0
  1  3  2  0  0  0
  1  5  1  0  0  0
  1 13  1  0  0  0
  2  4  1  0  0  0
  2 10  1  0  0  0
  2 18  1  0  0  0
  4  5  1  0  0  0
  4  6  2  0  0  0
  5 15  1  0  0  0
  7  8  2  0  0  0
  7 11  1  0  0  0
  7 25  1  0  0  0
  8 10  1  0  0  0
  9 22  1  0  0  0
  9 28  1  0  0  0
 10 13  2  0  0  0
 11 13  1  0  0  0
 12 29  2  0  0  0
 14 29  1  0  0  0
 14 30  1  0  0  0
 15 17  1  0  0  0
 16 31  1  0  0  0
 17 21  1  0  0  0
 18 19  1  0  0  0
 19 20  1  0  0  0
 22 23  2  0  0  0
 22 27  1  0  0  0
 23 24  1  0  0  0
 24 25  2  0  0  0
 25 26  1  0  0  0
 26 27  2  0  0  0
 28 29  1  0  0  0
 30 31  1  0  0  0
 11 32  1  0  0  0
 14 33  1  0  0  0
 16 34  1  0  0  0
 16 35  1  0  0  0
M  END
>  <CHROM.0>
175.27962730,-178.93898568,-175.03618082,-149.51158564

>  <CHROM.1>
79.38900763,102.89527447,3.50559721,-36.66242841,-176.26592613,123.37381503
-60.91415771,149.58311123,-178.45414392,-175.45090885,-60.08145444,50.09783694
23.55626473,39.10203398,1.62709311,-0.56118420,-1.92496765

>  <Name>
XAC_3REY_CCD_neutral

>  <RI>
-1.87621e+09

>  <Rbt.Current_Directory>
/mnt/nfs/CX900004_DS117/sbdd-project/references/stage5/d021_rdock_3REY_XAC_single_shot_qualification_20260917

>  <Rbt.Executable>
rbdock - v26.09-alpha

>  <Rbt.Library>
libRbt.so (26.09, Buildalpha)

>  <Rbt.Parameter_File>
dock.prm

>  <Rbt.Receptor>
3REY_rdock.prm

>  <SCORE>
-7.80009

>  <SCORE.INTER>
-8.522

>  <SCORE.INTER.CONST>
1

>  <SCORE.INTER.POLAR>
-0.515928

>  <SCORE.INTER.REPUL>
0

>  <SCORE.INTER.ROT>
11

>  <SCORE.INTER.VDW>
-23.1678

>  <SCORE.INTER.norm>
-0.274903

>  <SCORE.INTRA>
-0.772918

>  <SCORE.INTRA.DIHEDRAL>
1.77328

>  <SCORE.INTRA.DIHEDRAL.0>
8.42133

>  <SCORE.INTRA.POLAR>
-0.151335

>  <SCORE.INTRA.POLAR.0>
0

>  <SCORE.INTRA.REPUL>
0

>  <SCORE.INTRA.REPUL.0>
0

>  <SCORE.INTRA.VDW>
-1.14502

>  <SCORE.INTRA.VDW.0>
-1.06371

>  <SCORE.INTRA.norm>
-0.0249328

>  <SCORE.RESTR>
0

>  <SCORE.RESTR.CAVITY>
0

>  <SCORE.RESTR.norm>
0

>  <SCORE.SYSTEM>
1.49483

>  <SCORE.SYSTEM.CONST>
0

>  <SCORE.SYSTEM.DIHEDRAL>
1.3925

>  <SCORE.SYSTEM.VDW>
0.798578

>  <SCORE.SYSTEM.norm>
0.0482202

>  <SCORE.heavy>
31

>  <SCORE.norm>
-0.251616

$$$$
XAC_3REY_CCD_neutral
  rDOCK(R)          3D
libRbt.so/26.09/alpha
 35 37  0  0  0  0  0  0  0  0999 V2000
   47.2275   21.1805   36.8023 C   0  0  0  0  0  0
   49.7186   21.6460   35.5553 N   0  0  0  0  0  0
   46.1579   21.0100   37.4000 O   0  0  0  0  0  0
   48.7390   20.9197   34.9137 C   0  0  0  0  0  0
   47.5409   20.6830   35.5674 N   0  0  0  0  0  0
   48.9430   20.4759   33.7736 O   0  0  0  0  0  0
   49.5503   23.1061   38.8047 C   0  0  0  0  0  0
   50.3028   22.9210   37.7016 N   0  0  0  0  0  0
   51.2808   26.0484   43.3612 O   0  0  0  0  0  0
   49.4856   22.1757   36.8486 C   0  0  0  0  0  0
   48.3352   22.5338   38.6694 N   0  0  0  0  0  0
   53.3014   24.2347   43.0775 O   0  0  0  0  0  0
   48.2946   21.9428   37.4207 C   0  0  0  0  0  0
   54.7146   25.5930   44.1952 N   0  0  0  0  0  0
   46.5498   19.7880   34.9270 C   0  0  0  0  0  0
   57.9383   23.7655   43.7964 N   0  0  0  0  0  0
   45.5836   20.5770   34.0212 C   0  0  0  0  0  0
   51.0393   21.8629   34.9479 C   0  0  0  0  0  0
   51.0424   23.0761   34.0011 C   0  0  0  0  0  0
   52.4069   23.2943   33.3386 C   0  0  0  0  0  0
   44.4843   19.6994   33.4153 C   0  0  0  0  0  0
   50.8398   25.2741   42.3093 C   0  0  0  0  0  0
   49.7526   24.3690   42.3790 C   0  0  0  0  0  0
   49.3406   23.6534   41.2379 C   0  0  0  0  0  0
   50.0112   23.8162   40.0037 C   0  0  0  0  0  0
   51.1183   24.6928   39.9438 C   0  0  0  0  0  0
   51.5251   25.4126   41.0862 C   0  0  0  0  0  0
   52.6217   26.5285   43.3246 C   0  0  0  0  0  0
   53.5800   25.3502   43.5258 C   0  0  0  0  0  0
   55.7436   24.6103   44.5025 C   0  0  0  0  0  0
   56.9206   24.7621   43.5252 C   0  0  0  0  0  0
   47.6000   22.5372   39.3473 H   0  0  0  0  0  0
   54.8679   26.5291   44.5110 H   0  0  0  0  0  0
   57.5728   22.8548   43.6054 H   0  0  0  0  0  0
   58.7338   23.9342   43.2135 H   0  0  0  0  0  0
  1  3  2  0  0  0
  1  5  1  0  0  0
  1 13  1  0  0  0
  2  4  1  0  0  0
  2 10  1  0  0  0
  2 18  1  0  0  0
  4  5  1  0  0  0
  4  6  2  0  0  0
  5 15  1  0  0  0
  7  8  2  0  0  0
  7 11  1  0  0  0
  7 25  1  0  0  0
  8 10  1  0  0  0
  9 22  1  0  0  0
  9 28  1  0  0  0
 10 13  2  0  0  0
 11 13  1  0  0  0
 12 29  2  0  0  0
 14 29  1  0  0  0
 14 30  1  0  0  0
 15 17  1  0  0  0
 16 31  1  0  0  0
 17 21  1  0  0  0
 18 19  1  0  0  0
 19 20  1  0  0  0
 22 23  2  0  0  0
 22 27  1  0  0  0
 23 24  1  0  0  0
 24 25  2  0  0  0
 25 26  1  0  0  0
 26 27  2  0  0  0
 28 29  1  0  0  0
 30 31  1  0  0  0
 11 32  1  0  0  0
 14 33  1  0  0  0
 16 34  1  0  0  0
 16 35  1  0  0  0
M  END
>  <CHROM.0>
173.60431098,-62.11090955,-28.02514076,7.00915936

>  <CHROM.1>
85.30231203,92.38278944,-161.97002698,157.64482511,-69.99626278,101.36013227
-176.09690045,65.55326891,-178.77677259,34.36368217,-178.46330966,50.50284631
23.05323657,38.85018943,2.18953662,-0.14147922,-1.91663780

>  <Name>
XAC_3REY_CCD_neutral

>  <RI>
-1.87621e+09

>  <Rbt.Current_Directory>
/mnt/nfs/CX900004_DS117/sbdd-project/references/stage5/d021_rdock_3REY_XAC_single_shot_qualification_20260917

>  <Rbt.Executable>
rbdock - v26.09-alpha

>  <Rbt.Library>
libRbt.so (26.09, Buildalpha)

>  <Rbt.Parameter_File>
dock.prm

>  <Rbt.Receptor>
3REY_rdock.prm

>  <SCORE>
-5.04924

>  <SCORE.INTER>
-7.32703

>  <SCORE.INTER.CONST>
1

>  <SCORE.INTER.POLAR>
-0.841488

>  <SCORE.INTER.REPUL>
0

>  <SCORE.INTER.ROT>
11

>  <SCORE.INTER.VDW>
-20.866

>  <SCORE.INTER.norm>
-0.236356

>  <SCORE.INTRA>
1.39235

>  <SCORE.INTRA.DIHEDRAL>
1.16405

>  <SCORE.INTRA.DIHEDRAL.0>
8.42133

>  <SCORE.INTRA.POLAR>
0

>  <SCORE.INTRA.POLAR.0>
0

>  <SCORE.INTRA.REPUL>
0

>  <SCORE.INTRA.REPUL.0>
0

>  <SCORE.INTRA.VDW>
0.810329

>  <SCORE.INTRA.VDW.0>
-1.06371

>  <SCORE.INTRA.norm>
0.0449146

>  <SCORE.RESTR>
0

>  <SCORE.RESTR.CAVITY>
0

>  <SCORE.RESTR.norm>
0

>  <SCORE.SYSTEM>
0.885444

>  <SCORE.SYSTEM.CONST>
0

>  <SCORE.SYSTEM.DIHEDRAL>
1.3585

>  <SCORE.SYSTEM.VDW>
0.206192

>  <SCORE.SYSTEM.norm>
0.0285627

>  <SCORE.heavy>
31

>  <SCORE.norm>
-0.162879

$$$$
XAC_3REY_CCD_neutral
  rDOCK(R)          3D
libRbt.so/26.09/alpha
 35 37  0  0  0  0  0  0  0  0999 V2000
   53.4713   24.0398   42.1506 C   0  0  0  0  0  0
   52.2372   21.5769   42.7737 N   0  0  0  0  0  0
   54.0016   25.1058   41.8147 O   0  0  0  0  0  0
   52.7221   22.3904   43.7747 C   0  0  0  0  0  0
   53.3503   23.5763   43.4317 N   0  0  0  0  0  0
   52.6062   22.0490   44.9614 O   0  0  0  0  0  0
   52.3460   22.1726   39.2591 C   0  0  0  0  0  0
   51.9525   21.3326   40.2373 N   0  0  0  0  0  0
   51.4690   21.0785   33.7412 O   0  0  0  0  0  0
   52.3453   21.9698   41.4167 C   0  0  0  0  0  0
   52.9374   23.2739   39.7688 N   0  0  0  0  0  0
   48.9040   21.7339   34.5990 O   0  0  0  0  0  0
   52.9341   23.1442   41.1448 C   0  0  0  0  0  0
   48.2834   21.7875   32.4303 N   0  0  0  0  0  0
   53.9882   24.3751   44.5033 C   0  0  0  0  0  0
   46.4681   24.0573   32.6084 N   0  0  0  0  0  0
   52.9882   25.3609   45.1397 C   0  0  0  0  0  0
   51.6327   20.2699   43.0681 C   0  0  0  0  0  0
   50.1041   20.3658   43.2171 C   0  0  0  0  0  0
   49.6887   21.1452   44.4695 C   0  0  0  0  0  0
   53.6398   26.2893   46.1689 C   0  0  0  0  0  0
   51.7363   21.4019   35.0544 C   0  0  0  0  0  0
   52.0629   22.7023   35.5107 C   0  0  0  0  0  0
   52.2735   22.9499   36.8813 C   0  0  0  0  0  0
   52.1738   21.9032   37.8267 C   0  0  0  0  0  0
   51.8828   20.5989   37.3663 C   0  0  0  0  0  0
   51.6667   20.3548   35.9944 C   0  0  0  0  0  0
   50.6658   21.9757   32.9797 C   0  0  0  0  0  0
   49.2022   21.8195   33.4046 C   0  0  0  0  0  0
   46.8490   21.6317   32.6235 C   0  0  0  0  0  0
   46.2886   22.8449   33.3833 C   0  0  0  0  0  0
   53.3088   24.0420   39.2471 H   0  0  0  0  0  0
   48.6106   21.8781   31.4900 H   0  0  0  0  0  0
   46.0320   24.8228   33.0809 H   0  0  0  0  0  0
   47.4453   24.2440   32.5030 H   0  0  0  0  0  0
  1  3  2  0  0  0
  1  5  1  0  0  0
  1 13  1  0  0  0
  2  4  1  0  0  0
  2 10  1  0  0  0
  2 18  1  0  0  0
  4  5  1  0  0  0
  4  6  2  0  0  0
  5 15  1  0  0  0
  7  8  2  0  0  0
  7 11  1  0  0  0
  7 25  1  0  0  0
  8 10  1  0  0  0
  9 22  1  0  0  0
  9 28  1  0  0  0
 10 13  2  0  0  0
 11 13  1  0  0  0
 12 29  2  0  0  0
 14 29  1  0  0  0
 14 30  1  0  0  0
 15 17  1  0  0  0
 16 31  1  0  0  0
 17 21  1  0  0  0
 18 19  1  0  0  0
 19 20  1  0  0  0
 22 23  2  0  0  0
 22 27  1  0  0  0
 23 24  1  0  0  0
 24 25  2  0  0  0
 25 26  1  0  0  0
 26 27  2  0  0  0
 28 29  1  0  0  0
 30 31  1  0  0  0
 11 32  1  0  0  0
 14 33  1  0  0  0
 16 34  1  0  0  0
 16 35  1  0  0  0
M  END
>  <CHROM.0>
63.68707832,-61.30188201,16.25910142,-165.81648223

>  <CHROM.1>
93.42621576,94.22285240,163.00568138,-41.67196930,-75.51645361,64.73546727
-175.03708831,175.34709832,-68.21206659,43.63472380,62.86225118,51.33412320
22.45795562,39.08255940,-1.13701268,-0.61635027,-1.43160040

>  <Name>
XAC_3REY_CCD_neutral

>  <RI>
-1.87621e+09

>  <Rbt.Current_Directory>
/mnt/nfs/CX900004_DS117/sbdd-project/references/stage5/d021_rdock_3REY_XAC_single_shot_qualification_20260917

>  <Rbt.Executable>
rbdock - v26.09-alpha

>  <Rbt.Library>
libRbt.so (26.09, Buildalpha)

>  <Rbt.Parameter_File>
dock.prm

>  <Rbt.Receptor>
3REY_rdock.prm

>  <SCORE>
2.13362

>  <SCORE.INTER>
2.18593

>  <SCORE.INTER.CONST>
1

>  <SCORE.INTER.POLAR>
0

>  <SCORE.INTER.REPUL>
0

>  <SCORE.INTER.ROT>
11

>  <SCORE.INTER.VDW>
-14.2141

>  <SCORE.INTER.norm>
0.0705138

>  <SCORE.INTRA>
0.0444446

>  <SCORE.INTRA.DIHEDRAL>
3.42138

>  <SCORE.INTRA.DIHEDRAL.0>
8.42133

>  <SCORE.INTRA.POLAR>
0

>  <SCORE.INTRA.POLAR.0>
0

>  <SCORE.INTRA.REPUL>
0

>  <SCORE.INTRA.REPUL.0>
0

>  <SCORE.INTRA.VDW>
-1.66625

>  <SCORE.INTRA.VDW.0>
-1.06371

>  <SCORE.INTRA.norm>
0.0014337

>  <SCORE.RESTR>
0

>  <SCORE.RESTR.CAVITY>
0

>  <SCORE.RESTR.norm>
0

>  <SCORE.SYSTEM>
-0.096748

>  <SCORE.SYSTEM.CONST>
0

>  <SCORE.SYSTEM.DIHEDRAL>
0.744117

>  <SCORE.SYSTEM.VDW>
-0.468806

>  <SCORE.SYSTEM.norm>
-0.0031209

>  <SCORE.heavy>
31

>  <SCORE.norm>
0.0688266

$$$$
XAC_3REY_CCD_neutral
  rDOCK(R)          3D
libRbt.so/26.09/alpha
 35 37  0  0  0  0  0  0  0  0999 V2000
   52.0055   27.6411   45.0440 C   0  0  0  0  0  0
   51.3721   25.0661   46.0165 N   0  0  0  0  0  0
   52.2780   28.7454   44.5575 O   0  0  0  0  0  0
   51.6169   26.1040   46.8894 C   0  0  0  0  0  0
   51.9562   27.3460   46.3786 N   0  0  0  0  0  0
   51.5466   25.9141   48.1130 O   0  0  0  0  0  0
   51.4513   25.1731   42.4526 C   0  0  0  0  0  0
   51.2368   24.4086   43.5420 N   0  0  0  0  0  0
   51.0201   23.1935   37.1321 O   0  0  0  0  0  0
   51.4282   25.2798   44.6169 C   0  0  0  0  0  0
   51.7471   26.4442   42.7978 N   0  0  0  0  0  0
   51.8262   20.7772   34.8682 O   0  0  0  0  0  0
   51.7297   26.5112   44.1782 C   0  0  0  0  0  0
   51.2154   22.8805   34.3255 N   0  0  0  0  0  0
   52.3506   28.4162   47.3232 C   0  0  0  0  0  0
   53.0456   23.3462   32.2882 N   0  0  0  0  0  0
   51.2020   29.4201   47.5457 C   0  0  0  0  0  0
   51.0862   23.7068   46.4966 C   0  0  0  0  0  0
   49.6566   23.5842   47.0528 C   0  0  0  0  0  0
   49.2874   22.1371   47.3963 C   0  0  0  0  0  0
   49.9589   28.7752   48.1659 C   0  0  0  0  0  0
   51.1830   23.7258   38.3933 C   0  0  0  0  0  0
   51.5101   25.0782   38.6580 C   0  0  0  0  0  0
   51.6092   25.5461   39.9829 C   0  0  0  0  0  0
   51.3950   24.6727   41.0740 C   0  0  0  0  0  0
   51.1037   23.3152   40.8091 C   0  0  0  0  0  0
   50.9993   22.8505   39.4818 C   0  0  0  0  0  0
   52.1004   22.4525   36.5720 C   0  0  0  0  0  0
   51.7015   21.9660   35.1750 C   0  0  0  0  0  0
   50.7953   22.6250   32.9554 C   0  0  0  0  0  0
   51.6334   23.4725   31.9845 C   0  0  0  0  0  0
   51.9422   27.1983   42.1706 H   0  0  0  0  0  0
   51.1342   23.8188   34.6608 H   0  0  0  0  0  0
   53.2908   22.3783   32.3380 H   0  0  0  0  0  0
   53.5822   23.7891   31.5692 H   0  0  0  0  0  0
  1  3  2  0  0  0
  1  5  1  0  0  0
  1 13  1  0  0  0
  2  4  1  0  0  0
  2 10  1  0  0  0
  2 18  1  0  0  0
  4  5  1  0  0  0
  4  6  2  0  0  0
  5 15  1  0  0  0
  7  8  2  0  0  0
  7 11  1  0  0  0
  7 25  1  0  0  0
  8 10  1  0  0  0
  9 22  1  0  0  0
  9 28  1  0  0  0
 10 13  2  0  0  0
 11 13  1  0  0  0
 12 29  2  0  0  0
 14 29  1  0  0  0
 14 30  1  0  0  0
 15 17  1  0  0  0
 16 31  1  0  0  0
 17 21  1  0  0  0
 18 19  1  0  0  0
 19 20  1  0  0  0
 22 23  2  0  0  0
 22 27  1  0  0  0
 23 24  1  0  0  0
 24 25  2  0  0  0
 25 26  1  0  0  0
 26 27  2  0  0  0
 28 29  1  0  0  0
 30 31  1  0  0  0
 11 32  1  0  0  0
 14 33  1  0  0  0
 16 34  1  0  0  0
 16 35  1  0  0  0
M  END
>  <CHROM.0>
65.17163813,-63.34658255,-177.52098706,0.57157764

>  <CHROM.1>
75.40590299,80.32724711,178.86449748,100.15489550,-179.75305980,-119.88257595
61.92344699,51.59101871,172.95411939,-128.75100155,48.60541001,51.38991207
24.84688716,41.64219605,-1.70435835,-1.28067123,-2.00114046

>  <Name>
XAC_3REY_CCD_neutral

>  <RI>
-1.87621e+09

>  <Rbt.Current_Directory>
/mnt/nfs/CX900004_DS117/sbdd-project/references/stage5/d021_rdock_3REY_XAC_single_shot_qualification_20260917

>  <Rbt.Executable>
rbdock - v26.09-alpha

>  <Rbt.Library>
libRbt.so (26.09, Buildalpha)

>  <Rbt.Parameter_File>
dock.prm

>  <Rbt.Receptor>
3REY_rdock.prm

>  <SCORE>
-5.9218

>  <SCORE.INTER>
-6.41629

>  <SCORE.INTER.CONST>
1

>  <SCORE.INTER.POLAR>
-1.05672

>  <SCORE.INTER.REPUL>
0.0151669

>  <SCORE.INTER.ROT>
11

>  <SCORE.INTER.VDW>
-19.2993

>  <SCORE.INTER.norm>
-0.206977

>  <SCORE.INTRA>
0.450059

>  <SCORE.INTRA.DIHEDRAL>
4.16035

>  <SCORE.INTRA.DIHEDRAL.0>
8.42133

>  <SCORE.INTRA.POLAR>
0

>  <SCORE.INTRA.POLAR.0>
0

>  <SCORE.INTRA.REPUL>
0

>  <SCORE.INTRA.REPUL.0>
0

>  <SCORE.INTRA.VDW>
-1.63012

>  <SCORE.INTRA.VDW.0>
-1.06371

>  <SCORE.INTRA.norm>
0.014518

>  <SCORE.RESTR>
0

>  <SCORE.RESTR.CAVITY>
0

>  <SCORE.RESTR.norm>
0

>  <SCORE.SYSTEM>
0.0444317

>  <SCORE.SYSTEM.CONST>
0

>  <SCORE.SYSTEM.DIHEDRAL>
0.199399

>  <SCORE.SYSTEM.VDW>
-0.0552677

>  <SCORE.SYSTEM.norm>
0.00143328

>  <SCORE.heavy>
31

>  <SCORE.norm>
-0.191026

$$$$
XAC_3REY_CCD_neutral
  rDOCK(R)          3D
libRbt.so/26.09/alpha
 35 37  0  0  0  0  0  0  0  0999 V2000
   50.8930   23.3121   35.3924 C   0  0  0  0  0  0
   51.9058   20.7534   36.0286 N   0  0  0  0  0  0
   50.4422   24.4439   35.1774 O   0  0  0  0  0  0
   51.7898   21.1542   34.7152 C   0  0  0  0  0  0
   51.2591   22.4033   34.4381 N   0  0  0  0  0  0
   52.1443   20.3938   33.8018 O   0  0  0  0  0  0
   51.0266   22.6119   38.9427 C   0  0  0  0  0  0
   51.5316   21.4566   38.4657 N   0  0  0  0  0  0
   49.9702   23.7028   44.4297 O   0  0  0  0  0  0
   51.5243   21.6245   37.0790 C   0  0  0  0  0  0
   50.7271   23.4653   37.9406 N   0  0  0  0  0  0
   48.9454   23.7218   47.2402 O   0  0  0  0  0  0
   51.0471   22.8351   36.7529 C   0  0  0  0  0  0
   51.1703   23.4667   47.5165 N   0  0  0  0  0  0
   51.0114   22.7694   33.0246 C   0  0  0  0  0  0
   53.4081   25.1060   48.1928 N   0  0  0  0  0  0
   52.2941   23.2900   32.3464 C   0  0  0  0  0  0
   52.3859   19.4108   36.3849 C   0  0  0  0  0  0
   53.8044   19.4487   36.9804 C   0  0  0  0  0  0
   54.7923   20.2035   36.0845 C   0  0  0  0  0  0
   52.0702   23.7093   30.8904 C   0  0  0  0  0  0
   50.2866   23.3869   43.1257 C   0  0  0  0  0  0
   50.7565   22.1212   42.6974 C   0  0  0  0  0  0
   51.0091   21.8735   41.3340 C   0  0  0  0  0  0
   50.8090   22.8866   40.3680 C   0  0  0  0  0  0
   50.3741   24.1599   40.8006 C   0  0  0  0  0  0
   50.1163   24.4036   42.1655 C   0  0  0  0  0  0
   50.1464   22.6985   45.4249 C   0  0  0  0  0  0
   50.0387   23.3436   46.8104 C   0  0  0  0  0  0
   51.2821   24.0619   48.8402 C   0  0  0  0  0  0
   52.0993   25.3617   48.7621 C   0  0  0  0  0  0
   50.3447   24.3841   38.0394 H   0  0  0  0  0  0
   52.0099   23.1205   47.0989 H   0  0  0  0  0  0
   53.3071   24.8143   47.2419 H   0  0  0  0  0  0
   53.9563   25.9422   48.2283 H   0  0  0  0  0  0
  1  3  2  0  0  0
  1  5  1  0  0  0
  1 13  1  0  0  0
  2  4  1  0  0  0
  2 10  1  0  0  0
  2 18  1  0  0  0
  4  5  1  0  0  0
  4  6  2  0  0  0
  5 15  1  0  0  0
  7  8  2  0  0  0
  7 11  1  0  0  0
  7 25  1  0  0  0
  8 10  1  0  0  0
  9 22  1  0  0  0
  9 28  1  0  0  0
 10 13  2  0  0  0
 11 13  1  0  0  0
 12 29  2  0  0  0
 14 29  1  0  0  0
 14 30  1  0  0  0
 15 17  1  0  0  0
 16 31  1  0  0  0
 17 21  1  0  0  0
 18 19  1  0  0  0
 19 20  1  0  0  0
 22 23  2  0  0  0
 22 27  1  0  0  0
 23 24  1  0  0  0
 24 25  2  0  0  0
 25 26  1  0  0  0
 26 27  2  0  0  0
 28 29  1  0  0  0
 30 31  1  0  0  0
 11 32  1  0  0  0
 14 33  1  0  0  0
 16 34  1  0  0  0
 16 35  1  0  0  0
M  END
>  <CHROM.0>
63.20275076,-63.29824834,2.63915449,-175.55852718

>  <CHROM.1>
107.98492811,99.65640019,-6.08986360,1.09085352,167.58770103,-113.25624857
-178.69422505,65.29238252,-52.49467097,72.32786213,-57.03873667,51.34917886
22.71481187,39.77945694,1.43285342,0.97664215,-1.60900558

>  <Name>
XAC_3REY_CCD_neutral

>  <RI>
-1.87621e+09

>  <Rbt.Current_Directory>
/mnt/nfs/CX900004_DS117/sbdd-project/references/stage5/d021_rdock_3REY_XAC_single_shot_qualification_20260917

>  <Rbt.Executable>
rbdock - v26.09-alpha

>  <Rbt.Library>
libRbt.so (26.09, Buildalpha)

>  <Rbt.Parameter_File>
dock.prm

>  <Rbt.Receptor>
3REY_rdock.prm

>  <SCORE>
-4.08608

>  <SCORE.INTER>
-3.24689

>  <SCORE.INTER.CONST>
1

>  <SCORE.INTER.POLAR>
-0.848058

>  <SCORE.INTER.REPUL>
0

>  <SCORE.INTER.ROT>
11

>  <SCORE.INTER.VDW>
-16.7635

>  <SCORE.INTER.norm>
-0.104738

>  <SCORE.INTRA>
-0.615317

>  <SCORE.INTRA.DIHEDRAL>
-0.117232

>  <SCORE.INTRA.DIHEDRAL.0>
8.42133

>  <SCORE.INTRA.POLAR>
0

>  <SCORE.INTRA.POLAR.0>
0

>  <SCORE.INTRA.REPUL>
0

>  <SCORE.INTRA.REPUL.0>
0

>  <SCORE.INTRA.VDW>
-0.556701

>  <SCORE.INTRA.VDW.0>
-1.06371

>  <SCORE.INTRA.norm>
-0.0198489

>  <SCORE.RESTR>
0

>  <SCORE.RESTR.CAVITY>
0

>  <SCORE.RESTR.norm>
0

>  <SCORE.SYSTEM>
-0.223879

>  <SCORE.SYSTEM.CONST>
0

>  <SCORE.SYSTEM.DIHEDRAL>
0.147112

>  <SCORE.SYSTEM.VDW>
-0.297435

>  <SCORE.SYSTEM.norm>
-0.0072219

>  <SCORE.heavy>
31

>  <SCORE.norm>
-0.131809

$$$$
XAC_3REY_CCD_neutral
  rDOCK(R)          3D
libRbt.so/26.09/alpha
 35 37  0  0  0  0  0  0  0  0999 V2000
   48.5070   21.1030   35.7498 C   0  0  0  0  0  0
   51.0499   22.2013   35.1978 N   0  0  0  0  0  0
   47.4017   20.6380   36.0540 O   0  0  0  0  0  0
   50.2951   21.6412   34.1901 C   0  0  0  0  0  0
   49.0664   21.0829   34.5018 N   0  0  0  0  0  0
   50.7258   21.6288   33.0271 O   0  0  0  0  0  0
   50.1966   22.4599   38.6509 C   0  0  0  0  0  0
   51.1186   22.7309   37.7055 N   0  0  0  0  0  0
   50.8721   23.4370   44.2189 O   0  0  0  0  0  0
   50.5558   22.2399   36.5252 C   0  0  0  0  0  0
   49.1156   21.8508   38.1193 N   0  0  0  0  0  0
   50.3785   26.0075   43.8997 O   0  0  0  0  0  0
   49.3451   21.7132   36.7634 C   0  0  0  0  0  0
   52.2818   26.7277   44.8744 N   0  0  0  0  0  0
   48.3261   20.3631   33.4400 C   0  0  0  0  0  0
   50.9863   30.1002   45.7763 N   0  0  0  0  0  0
   47.6709   21.3448   32.4482 C   0  0  0  0  0  0
   52.3949   22.7376   34.9458 C   0  0  0  0  0  0
   52.3516   24.2136   34.5126 C   0  0  0  0  0  0
   53.7403   24.7591   34.1631 C   0  0  0  0  0  0
   46.8562   20.6382   31.3608 C   0  0  0  0  0  0
   50.7492   23.2717   42.8558 C   0  0  0  0  0  0
   51.7102   23.6957   41.9057 C   0  0  0  0  0  0
   51.5229   23.4409   40.5331 C   0  0  0  0  0  0
   50.3669   22.7669   40.0761 C   0  0  0  0  0  0
   49.3916   22.3757   41.0214 C   0  0  0  0  0  0
   49.5843   22.6268   42.3956 C   0  0  0  0  0  0
   51.8871   24.3138   44.6995 C   0  0  0  0  0  0
   51.4527   25.7626   44.4555 C   0  0  0  0  0  0
   52.0602   28.1586   44.7248 C   0  0  0  0  0  0
   51.3575   28.7127   45.9748 C   0  0  0  0  0  0
   48.2992   21.5544   38.6150 H   0  0  0  0  0  0
   53.1251   26.4409   45.3284 H   0  0  0  0  0  0
   50.4732   30.4252   46.5704 H   0  0  0  0  0  0
   51.8123   30.6536   45.6643 H   0  0  0  0  0  0
  1  3  2  0  0  0
  1  5  1  0  0  0
  1 13  1  0  0  0
  2  4  1  0  0  0
  2 10  1  0  0  0
  2 18  1  0  0  0
  4  5  1  0  0  0
  4  6  2  0  0  0
  5 15  1  0  0  0
  7  8  2  0  0  0
  7 11  1  0  0  0
  7 25  1  0  0  0
  8 10  1  0  0  0
  9 22  1  0  0  0
  9 28  1  0  0  0
 10 13  2  0  0  0
 11 13  1  0  0  0
 12 29  2  0  0  0
 14 29  1  0  0  0
 14 30  1  0  0  0
 15 17  1  0  0  0
 16 31  1  0  0  0
 17 21  1  0  0  0
 18 19  1  0  0  0
 19 20  1  0  0  0
 22 23  2  0  0  0
 22 27  1  0  0  0
 23 24  1  0  0  0
 24 25  2  0  0  0
 25 26  1  0  0  0
 26 27  2  0  0  0
 28 29  1  0  0  0
 30 31  1  0  0  0
 11 32  1  0  0  0
 14 33  1  0  0  0
 16 34  1  0  0  0
 16 35  1  0  0  0
M  END
>  <CHROM.0>
-53.75363362,-178.32743092,5.24527051,-174.32821958

>  <CHROM.1>
88.06820765,106.65680924,2.98582089,12.95811415,74.49893722,92.46862127,-178.07984627
175.94131070,-176.44644777,-1.09148176,-173.17223157,50.43100441,23.43553429
38.87464543,1.81077107,-0.81531628,-1.83066365

>  <Name>
XAC_3REY_CCD_neutral

>  <RI>
-1.87621e+09

>  <Rbt.Current_Directory>
/mnt/nfs/CX900004_DS117/sbdd-project/references/stage5/d021_rdock_3REY_XAC_single_shot_qualification_20260917

>  <Rbt.Executable>
rbdock - v26.09-alpha

>  <Rbt.Library>
libRbt.so (26.09, Buildalpha)

>  <Rbt.Parameter_File>
dock.prm

>  <Rbt.Receptor>
3REY_rdock.prm

>  <SCORE>
-4.07146

>  <SCORE.INTER>
-4.53177

>  <SCORE.INTER.CONST>
1

>  <SCORE.INTER.POLAR>
-0.632456

>  <SCORE.INTER.REPUL>
0

>  <SCORE.INTER.ROT>
11

>  <SCORE.INTER.VDW>
-18.7814

>  <SCORE.INTER.norm>
-0.146186

>  <SCORE.INTRA>
-0.595415

>  <SCORE.INTRA.DIHEDRAL>
0.212428

>  <SCORE.INTRA.DIHEDRAL.0>
8.42133

>  <SCORE.INTRA.POLAR>
0

>  <SCORE.INTRA.POLAR.0>
0

>  <SCORE.INTRA.REPUL>
0

>  <SCORE.INTRA.REPUL.0>
0

>  <SCORE.INTRA.VDW>
-0.701629

>  <SCORE.INTRA.VDW.0>
-1.06371

>  <SCORE.INTRA.norm>
-0.0192069

>  <SCORE.RESTR>
0

>  <SCORE.RESTR.CAVITY>
0

>  <SCORE.RESTR.norm>
0

>  <SCORE.SYSTEM>
1.05572

>  <SCORE.SYSTEM.CONST>
0

>  <SCORE.SYSTEM.DIHEDRAL>
0.29558

>  <SCORE.SYSTEM.VDW>
0.907934

>  <SCORE.SYSTEM.norm>
0.0340556

>  <SCORE.heavy>
31

>  <SCORE.norm>
-0.131337

$$$$
XAC_3REY_CCD_neutral
  rDOCK(R)          3D
libRbt.so/26.09/alpha
 35 37  0  0  0  0  0  0  0  0999 V2000
   47.3171   21.1623   36.9226 C   0  0  0  0  0  0
   49.9490   21.2359   35.9003 N   0  0  0  0  0  0
   46.1850   21.1647   37.4214 O   0  0  0  0  0  0
   48.9491   20.5817   35.2141 C   0  0  0  0  0  0
   47.6768   20.5379   35.7601 N   0  0  0  0  0  0
   49.1988   20.0305   34.1315 O   0  0  0  0  0  0
   49.6698   22.9522   39.0141 C   0  0  0  0  0  0
   50.4902   22.5959   38.0055 N   0  0  0  0  0  0
   51.3459   26.0139   43.5119 O   0  0  0  0  0  0
   49.6674   21.8875   37.1266 C   0  0  0  0  0  0
   48.4105   22.5171   38.7971 N   0  0  0  0  0  0
   52.3919   24.3660   45.7797 O   0  0  0  0  0  0
   48.4100   21.8403   37.5921 C   0  0  0  0  0  0
   50.3378   23.4998   45.4308 N   0  0  0  0  0  0
   46.6446   19.7180   35.0851 C   0  0  0  0  0  0
   50.5682   23.0304   48.2267 N   0  0  0  0  0  0
   45.7763   20.5739   34.1416 C   0  0  0  0  0  0
   51.3358   21.2495   35.4137 C   0  0  0  0  0  0
   51.5412   22.2883   34.2971 C   0  0  0  0  0  0
   51.3206   23.7230   34.7884 C   0  0  0  0  0  0
   44.6303   19.7823   33.5046 C   0  0  0  0  0  0
   50.9014   25.2208   42.4756 C   0  0  0  0  0  0
   49.6694   24.5221   42.4705 C   0  0  0  0  0  0
   49.2744   23.7725   41.3453 C   0  0  0  0  0  0
   50.1048   23.6941   40.2035 C   0  0  0  0  0  0
   51.3499   24.3625   40.2232 C   0  0  0  0  0  0
   51.7405   25.1171   41.3487 C   0  0  0  0  0  0
   50.7575   25.8311   44.7965 C   0  0  0  0  0  0
   51.2323   24.4955   45.3781 C   0  0  0  0  0  0
   50.5934   22.1572   45.9319 C   0  0  0  0  0  0
   50.0224   22.0111   47.3517 C   0  0  0  0  0  0
   47.6231   22.6587   39.3972 H   0  0  0  0  0  0
   49.4158   23.6952   45.0975 H   0  0  0  0  0  0
   50.1680   23.9171   47.9963 H   0  0  0  0  0  0
   50.3523   22.8044   49.1771 H   0  0  0  0  0  0
  1  3  2  0  0  0
  1  5  1  0  0  0
  1 13  1  0  0  0
  2  4  1  0  0  0
  2 10  1  0  0  0
  2 18  1  0  0  0
  4  5  1  0  0  0
  4  6  2  0  0  0
  5 15  1  0  0  0
  7  8  2  0  0  0
  7 11  1  0  0  0
  7 25  1  0  0  0
  8 10  1  0  0  0
  9 22  1  0  0  0
  9 28  1  0  0  0
 10 13  2  0  0  0
 11 13  1  0  0  0
 12 29  2  0  0  0
 14 29  1  0  0  0
 14 30  1  0  0  0
 15 17  1  0  0  0
 16 31  1  0  0  0
 17 21  1  0  0  0
 18 19  1  0  0  0
 19 20  1  0  0  0
 22 23  2  0  0  0
 22 27  1  0  0  0
 23 24  1  0  0  0
 24 25  2  0  0  0
 25 26  1  0  0  0
 26 27  2  0  0  0
 28 29  1  0  0  0
 30 31  1  0  0  0
 11 32  1  0  0  0
 14 33  1  0  0  0
 16 34  1  0  0  0
 16 35  1  0  0  0
M  END
>  <CHROM.0>
64.54730996,-176.27829412,-29.19424055,-162.68446377

>  <CHROM.1>
79.85080387,86.69103731,-165.74971813,19.22128603,71.12473851,101.85084285
-175.68946555,72.50094764,64.10567984,72.41428313,-55.88679869,49.58323048
22.62930656,39.63687249,1.87912873,-0.60032288,-1.68850610

>  <Name>
XAC_3REY_CCD_neutral

>  <RI>
-1.87621e+09

>  <Rbt.Current_Directory>
/mnt/nfs/CX900004_DS117/sbdd-project/references/stage5/d021_rdock_3REY_XAC_single_shot_qualification_20260917

>  <Rbt.Executable>
rbdock - v26.09-alpha

>  <Rbt.Library>
libRbt.so (26.09, Buildalpha)

>  <Rbt.Parameter_File>
dock.prm

>  <Rbt.Receptor>
3REY_rdock.prm

>  <SCORE>
-12.2064

>  <SCORE.INTER>
-11.2889

>  <SCORE.INTER.CONST>
1

>  <SCORE.INTER.POLAR>
-1.44543

>  <SCORE.INTER.REPUL>
0

>  <SCORE.INTER.ROT>
11

>  <SCORE.INTER.VDW>
-22.7745

>  <SCORE.INTER.norm>
-0.364159

>  <SCORE.INTRA>
-1.46664

>  <SCORE.INTRA.DIHEDRAL>
0.980742

>  <SCORE.INTRA.DIHEDRAL.0>
8.42133

>  <SCORE.INTRA.POLAR>
0

>  <SCORE.INTRA.POLAR.0>
0

>  <SCORE.INTRA.REPUL>
0

>  <SCORE.INTRA.REPUL.0>
0

>  <SCORE.INTRA.VDW>
-1.95701

>  <SCORE.INTRA.VDW.0>
-1.06371

>  <SCORE.INTRA.norm>
-0.0473109

>  <SCORE.RESTR>
0

>  <SCORE.RESTR.CAVITY>
0

>  <SCORE.RESTR.norm>
0

>  <SCORE.SYSTEM>
0.549163

>  <SCORE.SYSTEM.CONST>
0

>  <SCORE.SYSTEM.DIHEDRAL>
1.7434

>  <SCORE.SYSTEM.VDW>
-0.322538

>  <SCORE.SYSTEM.norm>
0.0177149

>  <SCORE.heavy>
31

>  <SCORE.norm>
-0.393755

$$$$
XAC_3REY_CCD_neutral
  rDOCK(R)          3D
libRbt.so/26.09/alpha
 35 37  0  0  0  0  0  0  0  0999 V2000
   50.2859   26.3177   45.2031 C   0  0  0  0  0  0
   52.9211   26.6165   44.2317 N   0  0  0  0  0  0
   49.1163   26.1570   45.5729 O   0  0  0  0  0  0
   52.5742   27.0979   45.4755 C   0  0  0  0  0  0
   51.2650   26.9628   45.9073 N   0  0  0  0  0  0
   53.4260   27.6559   46.1836 O   0  0  0  0  0  0
   50.8089   24.9481   41.8920 C   0  0  0  0  0  0
   52.0527   25.4006   42.1481 N   0  0  0  0  0  0
   49.4442   22.3345   37.0218 O   0  0  0  0  0  0
   51.9599   25.9578   43.4256 C   0  0  0  0  0  0
   49.9791   25.1846   42.9302 N   0  0  0  0  0  0
   52.4469   20.6425   37.1827 O   0  0  0  0  0  0
   50.7150   25.8265   43.9082 C   0  0  0  0  0  0
   51.9936   22.4636   35.9299 N   0  0  0  0  0  0
   50.8708   27.6033   47.1831 C   0  0  0  0  0  0
   52.8088   24.8591   34.3271 N   0  0  0  0  0  0
   50.1349   28.9357   46.9384 C   0  0  0  0  0  0
   54.2726   26.8000   43.6840 C   0  0  0  0  0  0
   54.5851   28.2824   43.4137 C   0  0  0  0  0  0
   56.0321   28.4988   42.9579 C   0  0  0  0  0  0
   50.9832   29.9523   46.1687 C   0  0  0  0  0  0
   49.6931   22.9749   38.2169 C   0  0  0  0  0  0
   48.8835   22.8599   39.3734 C   0  0  0  0  0  0
   49.2423   23.5140   40.5681 C   0  0  0  0  0  0
   50.4114   24.3067   40.6331 C   0  0  0  0  0  0
   51.1995   24.4496   39.4686 C   0  0  0  0  0  0
   50.8413   23.7891   38.2753 C   0  0  0  0  0  0
   50.1255   21.1104   36.7620 C   0  0  0  0  0  0
   51.6271   21.3901   36.6423 C   0  0  0  0  0  0
   53.3625   22.9072   35.7100 C   0  0  0  0  0  0
   53.4811   23.5744   34.3301 C   0  0  0  0  0  0
   49.0108   24.9401   42.9821 H   0  0  0  0  0  0
   51.2649   23.0068   35.5136 H   0  0  0  0  0  0
   51.8448   24.7318   34.5593 H   0  0  0  0  0  0
   53.2371   25.4611   35.0018 H   0  0  0  0  0  0
  1  3  2  0  0  0
  1  5  1  0  0  0
  1 13  1  0  0  0
  2  4  1  0  0  0
  2 10  1  0  0  0
  2 18  1  0  0  0
  4  5  1  0  0  0
  4  6  2  0  0  0
  5 15  1  0  0  0
  7  8  2  0  0  0
  7 11  1  0  0  0
  7 25  1  0  0  0
  8 10  1  0  0  0
  9 22  1  0  0  0
  9 28  1  0  0  0
 10 13  2  0  0  0
 11 13  1  0  0  0
 12 29  2  0  0  0
 14 29  1  0  0  0
 14 30  1  0  0  0
 15 17  1  0  0  0
 16 31  1  0  0  0
 17 21  1  0  0  0
 18 19  1  0  0  0
 19 20  1  0  0  0
 22 23  2  0  0  0
 22 27  1  0  0  0
 23 24  1  0  0  0
 24 25  2  0  0  0
 25 26  1  0  0  0
 26 27  2  0  0  0
 28 29  1  0  0  0
 30 31  1  0  0  0
 11 32  1  0  0  0
 14 33  1  0  0  0
 16 34  1  0  0  0
 16 35  1  0  0  0
M  END
>  <CHROM.0>
63.35994808,-64.47364188,-169.21250012,14.16905232

>  <CHROM.1>
-65.94638451,-77.29464107,161.11186602,-96.76048343,-65.37121565,147.96280213
-59.53470883,-58.96866242,175.02309591,136.68611949,71.11970047,51.56697451
25.16206723,41.31750583,1.54311048,0.47978184,1.07888855

>  <Name>
XAC_3REY_CCD_neutral

>  <RI>
-1.87621e+09

>  <Rbt.Current_Directory>
/mnt/nfs/CX900004_DS117/sbdd-project/references/stage5/d021_rdock_3REY_XAC_single_shot_qualification_20260917

>  <Rbt.Executable>
rbdock - v26.09-alpha

>  <Rbt.Library>
libRbt.so (26.09, Buildalpha)

>  <Rbt.Parameter_File>
dock.prm

>  <Rbt.Receptor>
3REY_rdock.prm

>  <SCORE>
-5.10035

>  <SCORE.INTER>
-6.53183

>  <SCORE.INTER.CONST>
1

>  <SCORE.INTER.POLAR>
0

>  <SCORE.INTER.REPUL>
0

>  <SCORE.INTER.ROT>
11

>  <SCORE.INTER.VDW>
-22.9318

>  <SCORE.INTER.norm>
-0.210704

>  <SCORE.INTRA>
1.32118

>  <SCORE.INTRA.DIHEDRAL>
5.86407

>  <SCORE.INTRA.DIHEDRAL.0>
8.42133

>  <SCORE.INTRA.POLAR>
0

>  <SCORE.INTRA.POLAR.0>
0

>  <SCORE.INTRA.REPUL>
0

>  <SCORE.INTRA.REPUL.0>
0

>  <SCORE.INTRA.VDW>
-1.61086

>  <SCORE.INTRA.VDW.0>
-1.06371

>  <SCORE.INTRA.norm>
0.0426186

>  <SCORE.RESTR>
0

>  <SCORE.RESTR.CAVITY>
0

>  <SCORE.RESTR.norm>
0

>  <SCORE.SYSTEM>
0.110308

>  <SCORE.SYSTEM.CONST>
0

>  <SCORE.SYSTEM.DIHEDRAL>
0.614295

>  <SCORE.SYSTEM.VDW>
-0.19684

>  <SCORE.SYSTEM.norm>
0.00355831

>  <SCORE.heavy>
31

>  <SCORE.norm>
-0.164527

$$$$
XAC_3REY_CCD_neutral
  rDOCK(R)          3D
libRbt.so/26.09/alpha
 35 37  0  0  0  0  0  0  0  0999 V2000
   53.6784   21.0569   40.6911 C   0  0  0  0  0  0
   51.0022   21.8015   41.2016 N   0  0  0  0  0  0
   54.8408   20.7449   40.4048 O   0  0  0  0  0  0
   51.8139   21.3609   42.2242 C   0  0  0  0  0  0
   53.1114   20.9733   41.9329 N   0  0  0  0  0  0
   51.3744   21.3016   43.3825 O   0  0  0  0  0  0
   51.8554   22.1387   37.7552 C   0  0  0  0  0  0
   50.8931   22.2904   38.6870 N   0  0  0  0  0  0
   51.0449   23.3721   32.2565 O   0  0  0  0  0  0
   51.5030   21.8937   39.8793 C   0  0  0  0  0  0
   53.0030   21.6894   38.3061 N   0  0  0  0  0  0
   52.3634   23.5312   29.0014 O   0  0  0  0  0  0
   52.7774   21.5357   39.6609 C   0  0  0  0  0  0
   50.3948   24.2729   29.8176 N   0  0  0  0  0  0
   53.9299   20.3731   43.0115 C   0  0  0  0  0  0
   47.7597   25.3218   29.7809 N   0  0  0  0  0  0
   54.8901   21.4086   43.6299 C   0  0  0  0  0  0
   49.5932   22.1507   41.4321 C   0  0  0  0  0  0
   49.3773   23.6741   41.4592 C   0  0  0  0  0  0
   50.0450   24.3356   42.6696 C   0  0  0  0  0  0
   54.1577   22.5444   44.3505 C   0  0  0  0  0  0
   51.3038   23.0234   33.5649 C   0  0  0  0  0  0
   52.5909   22.7302   34.0781 C   0  0  0  0  0  0
   52.7678   22.4298   35.4429 C   0  0  0  0  0  0
   51.6626   22.4045   36.3247 C   0  0  0  0  0  0
   50.3739   22.6623   35.8046 C   0  0  0  0  0  0
   50.2003   22.9685   34.4390 C   0  0  0  0  0  0
   52.1535   23.6176   31.3958 C   0  0  0  0  0  0
   51.6421   23.8071   29.9641 C   0  0  0  0  0  0
   49.7320   24.5346   28.5483 C   0  0  0  0  0  0
   48.2079   24.4363   28.7238 C   0  0  0  0  0  0
   53.8585   21.5026   37.8231 H   0  0  0  0  0  0
   49.8744   24.4567   30.6512 H   0  0  0  0  0  0
   47.8841   26.2718   29.4954 H   0  0  0  0  0  0
   46.7912   25.1543   29.9679 H   0  0  0  0  0  0
  1  3  2  0  0  0
  1  5  1  0  0  0
  1 13  1  0  0  0
  2  4  1  0  0  0
  2 10  1  0  0  0
  2 18  1  0  0  0
  4  5  1  0  0  0
  4  6  2  0  0  0
  5 15  1  0  0  0
  7  8  2  0  0  0
  7 11  1  0  0  0
  7 25  1  0  0  0
  8 10  1  0  0  0
  9 22  1  0  0  0
  9 28  1  0  0  0
 10 13  2  0  0  0
 11 13  1  0  0  0
 12 29  2  0  0  0
 14 29  1  0  0  0
 14 30  1  0  0  0
 15 17  1  0  0  0
 16 31  1  0  0  0
 17 21  1  0  0  0
 18 19  1  0  0  0
 19 20  1  0  0  0
 22 23  2  0  0  0
 22 27  1  0  0  0
 23 24  1  0  0  0
 24 25  2  0  0  0
 25 26  1  0  0  0
 26 27  2  0  0  0
 28 29  1  0  0  0
 30 31  1  0  0  0
 11 32  1  0  0  0
 14 33  1  0  0  0
 16 34  1  0  0  0
 16 35  1  0  0  0
M  END
>  <CHROM.0>
62.36699447,68.02616754,-166.42466732,7.65955752

>  <CHROM.1>
103.97983062,82.97008638,169.80981389,-8.15825961,172.75391324,154.53264001
64.90633909,67.78908909,-67.19198668,-152.38042185,55.04811258,51.59801815
22.62258438,37.06253140,-1.37601293,0.39279739,-1.45721349

>  <Name>
XAC_3REY_CCD_neutral

>  <RI>
-1.87621e+09

>  <Rbt.Current_Directory>
/mnt/nfs/CX900004_DS117/sbdd-project/references/stage5/d021_rdock_3REY_XAC_single_shot_qualification_20260917

>  <Rbt.Executable>
rbdock - v26.09-alpha

>  <Rbt.Library>
libRbt.so (26.09, Buildalpha)

>  <Rbt.Parameter_File>
dock.prm

>  <Rbt.Receptor>
3REY_rdock.prm

>  <SCORE>
-6.7006

>  <SCORE.INTER>
-6.73788

>  <SCORE.INTER.CONST>
1

>  <SCORE.INTER.POLAR>
-0.87178

>  <SCORE.INTER.REPUL>
0

>  <SCORE.INTER.ROT>
11

>  <SCORE.INTER.VDW>
-20.1738

>  <SCORE.INTER.norm>
-0.217351

>  <SCORE.INTRA>
-0.706778

>  <SCORE.INTRA.DIHEDRAL>
-0.0703514

>  <SCORE.INTRA.DIHEDRAL.0>
8.42133

>  <SCORE.INTRA.POLAR>
-0.0635035

>  <SCORE.INTRA.POLAR.0>
0

>  <SCORE.INTRA.REPUL>
0

>  <SCORE.INTRA.REPUL.0>
0

>  <SCORE.INTRA.VDW>
-0.45569

>  <SCORE.INTRA.VDW.0>
-1.06371

>  <SCORE.INTRA.norm>
-0.0227993

>  <SCORE.RESTR>
0

>  <SCORE.RESTR.CAVITY>
0

>  <SCORE.RESTR.norm>
0

>  <SCORE.SYSTEM>
0.744058

>  <SCORE.SYSTEM.CONST>
0

>  <SCORE.SYSTEM.DIHEDRAL>
0.694551

>  <SCORE.SYSTEM.VDW>
0.396783

>  <SCORE.SYSTEM.norm>
0.0240019

>  <SCORE.heavy>
31

>  <SCORE.norm>
-0.216148

$$$$
