@<TRIPOS>MOLECULE
              MOL      fake
   54    57     0     0     0



@<TRIPOS>ATOM
      1 C1         51.4891    24.6930    47.8033 C.3        1  LIG1  -0.1100
      2 C2         51.7923    26.0529    47.1825 C.3        1  LIG1  -0.1100
      3 C3         50.8474    26.4839    46.0640 C.3        1  LIG1  -0.1100
      4 C4         51.2364    25.9562    44.6757 C.3        1  LIG1  -0.1000
      5 C5         50.2731    24.8998    44.1131 C.3        1  LIG1   0.1400
      6 C6         50.5567    23.4518    44.5428 C.3        1  LIG1  -0.1300
      7 C7         50.4024    23.1802    46.0390 C.3        1  LIG1  -0.1000
      8 C8         51.6506    23.4989    46.8656 C.3        1  LIG1  -0.1100
      9 N1         50.1762    24.9957    42.6515 N.3        1  LIG1  -0.6400
     10 C9         51.2395    24.6308    41.8291 C.ar       1  LIG1   0.4500
     11 C10        51.0120    24.1491    40.5233 C.ar       1  LIG1  -0.1100
     12 C11        52.1240    23.8235    39.7646 C.ar       1  LIG1   0.2900
     13 N2         53.4116    23.9171    40.1292 N.ar       1  LIG1  -0.4800
     14 C12        53.5174    24.3800    41.3895 C.ar       1  LIG1   0.3100
     15 N3         52.5295    24.7311    42.2413 N.ar       1  LIG1  -0.5300
     16 N4         51.6203    23.3825    38.5723 N.pl3      1  LIG1  -0.4800
     17 C13        50.2546    23.4701    38.6436 C.2        1  LIG1   0.2500
     18 N5         49.8471    23.9122    39.8151 N.2        1  LIG1  -0.4300
     19 C14        52.4066    22.8941    37.4575 C.3        1  LIG1   0.2800
     20 C15        52.5734    21.3734    37.4564 C.3        1  LIG1   0.0700
     21 C16        52.8015    21.1088    35.9786 C.3        1  LIG1   0.0400
     22 C17        51.8565    22.1138    35.3179 C.3        1  LIG1   0.0600
     23 O1         51.7331    23.2350    36.2208 O.3        1  LIG1  -0.3600
     24 C18        50.4618    21.5409    35.0557 C.3        1  LIG1   0.0500
     25 O2         50.5448    20.4277    34.1775 O.3        1  LIG1  -0.5500
     26 O3         54.1753    21.4346    35.6876 O.3        1  LIG1  -0.5500
     27 O4         53.6653    20.8989    38.2365 O.3        1  LIG1  -0.5000
     28 H1         50.4884    24.6977    48.2522 H          1  LIG1   0.0600
     29 H2         52.1902    24.5586    48.6371 H          1  LIG1   0.0500
     30 H3         51.7164    26.7968    47.9868 H          1  LIG1   0.0500
     31 H4         52.8339    26.0882    46.8417 H          1  LIG1   0.0600
     32 H5         50.8997    27.5800    46.0146 H          1  LIG1   0.0500
     33 H6         49.8088    26.2496    46.3215 H          1  LIG1   0.0600
     34 H7         51.2290    26.8221    43.9999 H          1  LIG1   0.0600
     35 H8         52.2679    25.5880    44.6737 H          1  LIG1   0.0800
     36 H9         49.2653    25.1494    44.4687 H          1  LIG1   0.0800
     37 H10        51.5486    23.1245    44.2076 H          1  LIG1   0.0700
     38 H11        49.8408    22.8022    44.0183 H          1  LIG1   0.0500
     39 H12        50.2155    22.1034    46.1438 H          1  LIG1   0.0500
     40 H13        49.5086    23.6756    46.4341 H          1  LIG1   0.0700
     41 H14        51.8436    22.6247    47.5028 H          1  LIG1   0.0500
     42 H15        52.5428    23.6123    46.2402 H          1  LIG1   0.0700
     43 H16        49.3033    24.6455    42.2565 H          1  LIG1   0.4000
     44 H17        54.5285    24.4857    41.7732 H          1  LIG1   0.1900
     45 H18        49.6083    23.2023    37.8180 H          1  LIG1   0.2100
     46 H19        53.3707    23.4175    37.4710 H          1  LIG1   0.1200
     47 H20        51.6595    20.8728    37.7976 H          1  LIG1   0.1200
     48 H21        52.6470    20.0631    35.6977 H          1  LIG1   0.1200
     49 H22        52.2838    22.4821    34.3776 H          1  LIG1   0.1100
     50 H23        49.9794    21.2254    35.9854 H          1  LIG1   0.0500
     51 H24        49.8240    22.3073    34.6022 H          1  LIG1   0.0700
     52 H25        51.0247    20.7247    33.3823 H          1  LIG1   0.3900
     53 H26        54.3176    21.2396    34.7421 H          1  LIG1   0.3900
     54 H27        53.5096    19.9390    38.3547 H          1  LIG1   0.3900
@<TRIPOS>BOND
     1    1    2 1
     2    2    3 1
     3    3    4 1
     4    4    5 1
     5    5    6 1
     6    6    7 1
     7    7    8 1
     8    5    9 1
     9    9   10 1
    10   10   11 ar
    11   11   12 ar
    12   12   13 ar
    13   13   14 ar
    14   14   15 ar
    15   12   16 1
    16   16   17 1
    17   17   18 2
    18   16   19 1
    19   19   20 1
    20   20   21 1
    21   21   22 1
    22   22   23 1
    23   22   24 1
    24   24   25 1
    25   21   26 1
    26   20   27 1
    27    8    1 1
    28   15   10 ar
    29   18   11 1
    30   23   19 1
    31    1   28 1
    32    1   29 1
    33    2   30 1
    34    2   31 1
    35    3   32 1
    36    3   33 1
    37    4   34 1
    38    4   35 1
    39    5   36 1
    40    6   37 1
    41    6   38 1
    42    7   39 1
    43    7   40 1
    44    8   41 1
    45    8   42 1
    46    9   43 1
    47   14   44 1
    48   17   45 1
    49   19   46 1
    50   20   47 1
    51   21   48 1
    52   22   49 1
    53   24   50 1
    54   24   51 1
    55   25   52 1
    56   26   53 1
    57   27   54 1
##########                 Name:                  MOL
##########          Protonation:                 fake
##########               SMILES:   fake
##########            Long Name:   fake
##########          FlexRecCode: 1
##########               Number:                    1
##########   Ligand Source File: -
##########                 Rank:                    2
##########               Setnum:                   21
##########             Matchnum:                   10
##########                  OXR:    53.4690    23.0250    41.5130
##########                  OXR:    51.6400    22.7210    39.9810
##########                  OXR:    52.1770    23.4190    38.8610
##########                  OXR:    51.5720    23.2420    37.6350
##########                  OXS:     1.1810     0.8510    -1.7660
##########                  OXS:     2.7920    -0.1820    -0.2640
##########                  OXS:     3.9800     0.5590    -0.6370
##########                  OXS:     5.1350    -0.3060    -0.5070
##########                Cloud:                    1
##########        Electrostatic:           -12.475455
##########                 Gist:             0.000000
##########        Van der Waals:           -19.657887
##########  Ligand Polar Desolv:             4.058465
########## Ligand Apolar Desolv:             0.964003
##########         Total Strain:             3.010000
##########           Max Strain:             1.650000
########## Receptor Desolvation:             0.000000
########## Receptor Hydrophobic:             0.000000
##########         Total Energy:           -27.110874
##########        Ligand Charge:             0.000000
##########            Arbitrary:    +999.9990
##########        Ligand Energy:             0.000000

