@<TRIPOS>MOLECULE
MOL
   59    61     1     0     0
SMALL
No Charge or Current Charge


@<TRIPOS>ATOM
      1 C1          48.9990    24.1270    30.3690 C.2        1 MOL       0.000000
      2 N1          47.4200    21.9500    31.2320 N.am       1 MOL       0.000000
      3 O1          49.7200    25.0800    30.0490 O.2        1 MOL       0.000000
      4 C2          47.2530    22.4800    29.9710 C.2        1 MOL       0.000000
      5 N2          48.0220    23.5680    29.5920 N.am       1 MOL       0.000000
      6 O2          46.4130    21.9920    29.2000 O.2        1 MOL       0.000000
      7 C3          49.7100    23.0270    33.7450 C.2        1 MOL       0.000000
      8 N3          48.7440    22.1450    33.4190 N.2        1 MOL       0.000000
      9 O3          52.1770    23.4190    38.8610 O.3        1 MOL       0.000000
     10 C4          48.3930    22.4870    32.1110 C.2        1 MOL       0.000000
     11 N4          49.9710    23.8670    32.7210 N.pl3      1 MOL       0.000000
     12 O4          53.4690    23.0250    41.5130 O.2        1 MOL       0.000000
     13 C5          49.1320    23.5200    31.6790 C.2        1 MOL       0.000000
     14 N5          51.5090    23.9920    42.0740 N.am       1 MOL       0.000000
     15 C6          47.7400    24.2150    28.2900 C.3        1 MOL       0.000000
     16 N6          51.1610    25.9650    45.2170 N.3        1 MOL       0.000000
     17 C7          46.6940    25.3380    28.4360 C.3        1 MOL       0.000000
     18 C8          46.5800    20.8480    31.7220 C.3        1 MOL       0.000000
     19 C9          47.2750    19.4840    31.5650 C.3        1 MOL       0.000000
     20 C10         46.4900    18.3500    32.2330 C.3        1 MOL       0.000000
     21 C11         46.2680    25.9340    27.0910 C.3        1 MOL       0.000000
     22 C12         51.5720    23.2420    37.6350 C.ar       1 MOL       0.000000
     23 C13         50.5720    22.2760    37.3650 C.ar       1 MOL       0.000000
     24 C14         49.9740    22.1990    36.0920 C.ar       1 MOL       0.000000
     25 C15         50.3680    23.0770    35.0560 C.ar       1 MOL       0.000000
     26 C16         51.3910    24.0170    35.3160 C.ar       1 MOL       0.000000
     27 C17         51.9840    24.0960    36.5930 C.ar       1 MOL       0.000000
     28 C18         51.6400    22.7210    39.9810 C.3        1 MOL       0.000000
     29 C19         52.2840    23.2610    41.2620 C.2        1 MOL       0.000000
     30 C20         51.9250    24.5800    43.3390 C.3        1 MOL       0.000000
     31 C21         50.7600    25.3700    43.9570 C.3        1 MOL       0.000000
     32 H1          50.6470    24.6040    32.7170 H          1 MOL       0.000000
     33 H2          50.5640    24.1470    41.7870 H          1 MOL       0.000000
     34 H3          48.6730    24.6470    27.8980 H          1 MOL       0.000000
     35 H4          47.3530    23.4570    27.5930 H          1 MOL       0.000000
     36 H5          50.3930    26.4740    45.6050 H          1 MOL       0.000000
     37 H6          51.4380    25.2440    45.8530 H          1 MOL       0.000000
     38 H7          45.8030    24.9200    28.9270 H          1 MOL       0.000000
     39 H8          47.1310    26.1410    29.0480 H          1 MOL       0.000000
     40 H9          46.3670    21.0140    32.7880 H          1 MOL       0.000000
     41 H10         45.6440    20.8350    31.1450 H          1 MOL       0.000000
     42 H11         47.3670    19.2600    30.4920 H          1 MOL       0.000000
     43 H12         48.2690    19.5430    32.0310 H          1 MOL       0.000000
     44 H13         47.0260    17.4000    32.0930 H          1 MOL       0.000000
     45 H14         46.3880    18.5580    33.3080 H          1 MOL       0.000000
     46 H15         45.4910    18.2780    31.7770 H          1 MOL       0.000000
     47 H16         45.5240    26.7260    27.2600 H          1 MOL       0.000000
     48 H17         47.1470    26.3580    26.5830 H          1 MOL       0.000000
     49 H18         45.8270    25.1450    26.4640 H          1 MOL       0.000000
     50 H19         50.2650    21.5920    38.1420 H          1 MOL       0.000000
     51 H20         49.2070    21.4620    35.9050 H          1 MOL       0.000000
     52 H21         51.7210    24.6800    34.5300 H          1 MOL       0.000000
     53 H22         52.7640    24.8210    36.7750 H          1 MOL       0.000000
     54 H23         50.5510    22.8720    40.0230 H          1 MOL       0.000000
     55 H24         51.8550    21.6470    39.8840 H          1 MOL       0.000000
     56 H25         52.2290    23.7800    44.0300 H          1 MOL       0.000000
     57 H26         52.7730    25.2590    43.1640 H          1 MOL       0.000000
     58 H27         49.9150    24.6880    44.1330 H          1 MOL       0.000000
     59 H28         50.4570    26.1670    43.2620 H          1 MOL       0.000000
@<TRIPOS>BOND
     1     1     3 2   
     2     1     5 am  
     3     1    13 1   
     4     2     4 am  
     5     2    10 1   
     6     2    18 1   
     7     4     5 am  
     8     4     6 2   
     9     5    15 1   
    10     7     8 2   
    11     7    11 1   
    12     7    25 1   
    13     8    10 1   
    14     9    22 1   
    15     9    28 1   
    16    10    13 2   
    17    11    13 1   
    18    12    29 2   
    19    14    29 am  
    20    14    30 1   
    21    15    17 1   
    22    16    31 1   
    23    17    21 1   
    24    18    19 1   
    25    19    20 1   
    26    22    23 ar  
    27    22    27 ar  
    28    23    24 ar  
    29    24    25 ar  
    30    25    26 ar  
    31    26    27 ar  
    32    28    29 1   
    33    30    31 1   
    34    11    32 1   
    35    14    33 1   
    36    15    34 1   
    37    15    35 1   
    38    16    36 1   
    39    16    37 1   
    40    17    38 1   
    41    17    39 1   
    42    18    40 1   
    43    18    41 1   
    44    19    42 1   
    45    19    43 1   
    46    20    44 1   
    47    20    45 1   
    48    20    46 1   
    49    21    47 1   
    50    21    48 1   
    51    21    49 1   
    52    23    50 1   
    53    24    51 1   
    54    26    52 1   
    55    27    53 1   
    56    28    54 1   
    57    28    55 1   
    58    30    56 1   
    59    30    57 1   
    60    31    58 1   
    61    31    59 1   
@<TRIPOS>SUBSTRUCTURE
     1 MOL         1 TEMP              0 ****  ****    0 ROOT
